@<TRIPOS>MOLECULE
39Q
   84    86     1     0     0
SMALL
abcg2


@<TRIPOS>ATOM
      1 C2          -4.3830    -1.7220     0.2300 c          1 39Q       0.599100
      2 O3          -4.3370    -2.5410     1.1350 o          1 39Q      -0.585100
      3 C4          -5.4650    -1.7390    -0.8400 c3         1 39Q       0.089800
      4 N5          -6.6950    -2.3090    -0.3620 n3         1 39Q      -0.693600
      5 O8          -9.5040    -2.4570     0.0230 os         1 39Q      -0.452000
      6 C10         -7.5930    -2.6480    -1.4520 c6         1 39Q       0.126300
      7 C6          -7.3760    -1.4410     0.5830 c6         1 39Q       0.126300
      8 C9          -8.8490    -3.2970    -0.9030 c6         1 39Q       0.153600
      9 C7          -8.6400    -2.1140     1.0830 c6         1 39Q       0.153600
     10 N1          -3.4690    -0.7550     0.0600 ns         1 39Q      -0.505900
     11 C11         -2.3310    -0.5750     0.9250 c3         1 39Q       0.035700
     12 C12         -2.6740     0.2990     2.1340 c3         1 39Q      -0.108100
     13 C13         -1.1940     0.0400     0.1100 c          1 39Q       0.599100
     14 O14         -1.3730     0.5020    -1.0040 o          1 39Q      -0.606100
     15 N15         -0.0050     0.0270     0.7340 ns         1 39Q      -0.488900
     16 C16          1.1890     0.6090     0.1860 c3         1 39Q       0.032700
     17 C17          1.4910     1.9990     0.7900 c3         1 39Q      -0.038100
     18 C18          0.3540     2.9550     0.5810 ca         1 39Q      -0.120300
     19 C19          0.1660     3.5840    -0.6500 ca         1 39Q      -0.061500
     20 C20         -0.9030     4.4290    -0.8710 ca         1 39Q      -0.169000
     21 C21         -1.8320     4.6670     0.1460 ca         1 39Q       0.144100
     22 O22         -2.8470     5.5000    -0.1580 os         1 39Q      -0.341100
     23 C23         -3.8020     5.7930     0.8420 c3         1 39Q       0.148900
     24 C24         -1.6580     4.0520     1.3810 ca         1 39Q      -0.169000
     25 C25         -0.5710     3.2070     1.5820 ca         1 39Q      -0.061500
     26 C26          2.3720    -0.3080     0.4670 c          1 39Q       0.591100
     27 O27          2.3840    -1.0840     1.4080 o          1 39Q      -0.604100
     28 N28          3.4130    -0.1580    -0.3690 ns         1 39Q      -0.478900
     29 C29          4.6980    -0.7250    -0.0670 c3         1 39Q       0.013700
     30 C31          5.2950    -0.1050     1.1950 c          1 39Q       0.561100
     31 O32          4.9690     0.9980     1.5600 o          1 39Q      -0.517100
     32 C37          6.2980    -0.9520     1.9400 c3         1 39Q      -0.163700
     33 C38          5.5280    -1.8380     2.9290 c3         1 39Q      -0.081100
     34 C39          7.3420    -0.0870     2.6330 c3         1 39Q       0.172600
     35 O40          8.3030    -0.9380     3.2130 oh         1 39Q      -0.663000
     36 C30          5.6620    -0.4930    -1.2410 c3         1 39Q      -0.038100
     37 C41          5.1910    -1.1730    -2.4970 ca         1 39Q      -0.086300
     38 C42          5.3100    -2.5550    -2.6350 ca         1 39Q      -0.105000
     39 C43          4.8580    -3.1950    -3.7790 ca         1 39Q      -0.104000
     40 C44          4.2790    -2.4590    -4.8060 ca         1 39Q      -0.104000
     41 C45          4.1590    -1.0830    -4.6810 ca         1 39Q      -0.104000
     42 C46          4.6130    -0.4450    -3.5330 ca         1 39Q      -0.105000
     43 H2          -5.5980    -0.7260    -1.2560 h1         1 39Q       0.048700
     44 H3          -5.0880    -2.3580    -1.6620 h1         1 39Q       0.048700
     45 H8          -7.8680    -1.7620    -2.0500 h1         1 39Q       0.041700
     46 H9          -7.0960    -3.3520    -2.1260 h1         1 39Q       0.041700
     47 H4          -6.7320    -1.2410     1.4420 h1         1 39Q       0.041700
     48 H5          -7.6260    -0.4680     0.1270 h1         1 39Q       0.041700
     49 H14         -8.5850    -4.2540    -0.4310 h1         1 39Q       0.053450
     50 H15         -9.5500    -3.5020    -1.7130 h1         1 39Q       0.053450
     51 H6          -9.1860    -1.4400     1.7460 h1         1 39Q       0.053450
     52 H7          -8.3660    -3.0090     1.6590 h1         1 39Q       0.053450
     53 H1          -3.5760    -0.0990    -0.6990 hn         1 39Q       0.335500
     54 H17         -2.0070    -1.5570     1.2800 h1         1 39Q       0.089700
     55 H18         -2.9460     1.3070     1.8190 hc         1 39Q       0.048033
     56 H19         -3.5130    -0.1350     2.6740 hc         1 39Q       0.048033
     57 H20         -1.8360     0.3740     2.8270 hc         1 39Q       0.048033
     58 H21          0.0660    -0.3950     1.6470 hn         1 39Q       0.336500
     59 H22          1.0520     0.7130    -0.8920 h1         1 39Q       0.092700
     60 H10          1.6980     1.8820     1.8560 hc         1 39Q       0.061700
     61 H11          2.4040     2.3880     0.3340 hc         1 39Q       0.061700
     62 H27          0.8720     3.4100    -1.4540 ha         1 39Q       0.108500
     63 H23         -0.4510     2.7390     2.5520 ha         1 39Q       0.108500
     64 H12         -1.0290     4.9120    -1.8320 ha         1 39Q       0.121500
     65 H13         -2.3500     4.2140     2.1960 ha         1 39Q       0.121500
     66 H24         -4.5200     6.4760     0.3950 h1         1 39Q       0.040367
     67 H25         -4.3330     4.8970     1.1770 h1         1 39Q       0.040367
     68 H26         -3.3490     6.2790     1.7110 h1         1 39Q       0.040367
     69 H28          3.3630     0.5620    -1.0730 hn         1 39Q       0.322500
     70 H29          4.5980    -1.8040     0.0880 h1         1 39Q       0.093700
     71 H40          5.0000    -1.2290     3.6630 hc         1 39Q       0.050033
     72 H41          4.7960    -2.4670     2.4240 hc         1 39Q       0.050033
     73 H42          6.2170    -2.4930     3.4590 hc         1 39Q       0.050033
     74 H43          7.8020     0.5890     1.9000 h1         1 39Q       0.029200
     75 H44          6.8520     0.5410     3.3860 h1         1 39Q       0.029200
     76 H45          8.9160    -0.3980     3.7190 ho         1 39Q       0.447000
     77 H30          5.7740     0.5820    -1.4070 hc         1 39Q       0.060200
     78 H31          6.6490    -0.8700    -0.9640 hc         1 39Q       0.060200
     79 H36          5.7660    -3.1350    -1.8400 ha         1 39Q       0.109000
     80 H35          4.9610    -4.2680    -3.8710 ha         1 39Q       0.115500
     81 H34          3.9250    -2.9570    -5.7000 ha         1 39Q       0.116000
     82 H33          3.7130    -0.5020    -5.4780 ha         1 39Q       0.115500
     83 H32          4.5210     0.6320    -3.4480 ha         1 39Q       0.109000
     84 H39          6.8020    -1.6060     1.2200 hc         1 39Q       0.070700
@<TRIPOS>BOND
     1     1     2 2   
     2     1     3 1   
     3     1    10 1   
     4     3     4 1   
     5     3    43 1   
     6     3    44 1   
     7     4     6 1   
     8     4     7 1   
     9     5     8 1   
    10     5     9 1   
    11     6     8 1   
    12     6    45 1   
    13     6    46 1   
    14     7     9 1   
    15     7    47 1   
    16     7    48 1   
    17     8    49 1   
    18     8    50 1   
    19     9    51 1   
    20     9    52 1   
    21    10    11 1   
    22    10    53 1   
    23    11    12 1   
    24    11    13 1   
    25    11    54 1   
    26    12    55 1   
    27    12    56 1   
    28    12    57 1   
    29    13    14 2   
    30    13    15 1   
    31    15    16 1   
    32    15    58 1   
    33    16    17 1   
    34    16    26 1   
    35    16    59 1   
    36    17    18 1   
    37    17    60 1   
    38    17    61 1   
    39    18    19 ar  
    40    18    25 ar  
    41    19    20 ar  
    42    19    62 1   
    43    20    21 ar  
    44    20    64 1   
    45    21    22 1   
    46    21    24 ar  
    47    22    23 1   
    48    23    66 1   
    49    23    67 1   
    50    23    68 1   
    51    24    25 ar  
    52    24    65 1   
    53    25    63 1   
    54    26    27 2   
    55    26    28 1   
    56    28    29 1   
    57    28    69 1   
    58    29    30 1   
    59    29    36 1   
    60    29    70 1   
    61    30    31 2   
    62    30    32 1   
    63    32    33 1   
    64    32    34 1   
    65    32    84 1   
    66    33    71 1   
    67    33    72 1   
    68    33    73 1   
    69    34    35 1   
    70    34    74 1   
    71    34    75 1   
    72    35    76 1   
    73    36    37 1   
    74    36    77 1   
    75    36    78 1   
    76    37    38 ar  
    77    37    42 ar  
    78    38    39 ar  
    79    38    79 1   
    80    39    40 ar  
    81    39    80 1   
    82    40    41 ar  
    83    40    81 1   
    84    41    42 ar  
    85    41    82 1   
    86    42    83 1   
@<TRIPOS>SUBSTRUCTURE
     1 39Q         1 TEMP              0 ****  ****    0 ROOT
