@<TRIPOS>MOLECULE
39Q
   84    86     1     0     0
SMALL
No Charge or Current Charge


@<TRIPOS>ATOM
      1 C2          -4.3370    -2.5270    -0.7920 c          1 39Q       0.599100
      2 O3          -4.4400    -3.5220    -0.0830 o          1 39Q      -0.585100
      3 C4          -5.4070    -2.1190    -1.8470 c3         1 39Q       0.089800
      4 N5          -6.4360    -1.1030    -1.4440 n3         1 39Q      -0.693600
      5 O8          -7.9460     1.3710    -1.6950 os         1 39Q      -0.452000
      6 C10         -7.4990    -0.9230    -2.4810 c6         1 39Q       0.126300
      7 C6          -5.8610     0.2220    -1.0380 c6         1 39Q       0.126300
      8 C9          -8.5740     0.1120    -2.0360 c6         1 39Q       0.153600
      9 C7          -6.9700     1.2380    -0.6340 c6         1 39Q       0.153600
     10 N1          -3.2490    -1.6810    -0.7160 ns         1 39Q      -0.505900
     11 C11         -2.1450    -1.7600     0.2660 c3         1 39Q       0.035700
     12 C12         -2.6580    -1.4800     1.7020 c3         1 39Q      -0.108100
     13 C13         -1.0080    -0.7780    -0.1520 c          1 39Q       0.599100
     14 O14         -1.0730    -0.0840    -1.1600 o          1 39Q      -0.606100
     15 N15          0.0860    -0.7340     0.6900 ns         1 39Q      -0.488900
     16 C16          1.1930     0.2470     0.5850 c3         1 39Q       0.032700
     17 C17          0.9650     1.4460     1.5460 c3         1 39Q      -0.038100
     18 C18         -0.4470     2.0240     1.4730 ca         1 39Q      -0.120300
     19 C19         -0.8570     2.7570     0.3440 ca         1 39Q      -0.061500
     20 C20         -2.1720     3.2460     0.2570 ca         1 39Q      -0.169000
     21 C21         -3.0880     3.0150     1.2950 ca         1 39Q       0.144100
     22 O22         -4.3700     3.5060     1.1480 os         1 39Q      -0.341100
     23 C23         -5.3830     3.3140     2.1520 c3         1 39Q       0.148900
     24 C24         -2.6750     2.2950     2.4370 ca         1 39Q      -0.169000
     25 C25         -1.3610     1.8030     2.5220 ca         1 39Q      -0.061500
     26 C26          2.5600    -0.4400     0.8510 c          1 39Q       0.591100
     27 O27          2.6630    -1.5410     1.3800 o          1 39Q      -0.604100
     28 N28          3.6640     0.2850     0.4470 ns         1 39Q      -0.478900
     29 C29          5.0570    -0.2220     0.4440 c3         1 39Q       0.013700
     30 C31          6.0490     0.8820     0.9070 c          1 39Q       0.561100
     31 O32          5.7480     2.0720     0.8960 o          1 39Q      -0.517100
     32 C37          7.4310     0.4100     1.3970 c3         1 39Q      -0.163700
     33 C38          7.6440     0.7670     2.8920 c3         1 39Q      -0.081100
     34 C39          8.5310     0.9760     0.4730 c3         1 39Q       0.172600
     35 O40          9.7870     0.3590     0.7750 oh         1 39Q      -0.663000
     36 C30          5.4490    -0.7990    -0.9420 c3         1 39Q      -0.038100
     37 C41          4.4550    -1.8310    -1.4650 ca         1 39Q      -0.086300
     38 C42          4.5330    -3.1710    -1.0380 ca         1 39Q      -0.105000
     39 C43          3.6030    -4.1180    -1.5020 ca         1 39Q      -0.104000
     40 C44          2.5890    -3.7310    -2.3940 ca         1 39Q      -0.104000
     41 C45          2.5060    -2.3960    -2.8240 ca         1 39Q      -0.104000
     42 C46          3.4370    -1.4500    -2.3630 ca         1 39Q      -0.105000
     43 H2          -4.8640    -1.7640    -2.7330 h1         1 39Q       0.048700
     44 H3          -5.9110    -3.0490    -2.1430 h1         1 39Q       0.048700
     45 H8          -7.0540    -0.5820    -3.4280 h1         1 39Q       0.041700
     46 H9          -7.9970    -1.8820    -2.6870 h1         1 39Q       0.041700
     47 H4          -5.1810     0.1040    -0.1830 h1         1 39Q       0.041700
     48 H5          -5.2740     0.6530    -1.8630 h1         1 39Q       0.041700
     49 H14         -9.1230    -0.2690    -1.1620 h1         1 39Q       0.053450
     50 H15         -9.2950     0.2760    -2.8490 h1         1 39Q       0.053450
     51 H6          -6.5210     2.2210    -0.4350 h1         1 39Q       0.053450
     52 H7          -7.4740     0.8990     0.2830 h1         1 39Q       0.053450
     53 H1          -3.2370    -0.9050    -1.3690 hn         1 39Q       0.335500
     54 H17         -1.7170    -2.7710     0.2350 h1         1 39Q       0.089700
     55 H18         -3.1090    -0.4820     1.7610 hc         1 39Q       0.048033
     56 H19         -3.4170    -2.2120     2.0000 hc         1 39Q       0.048033
     57 H20         -1.8450    -1.5350     2.4350 hc         1 39Q       0.048033
     58 H21          0.0920    -1.3800     1.4710 hn         1 39Q       0.336500
     59 H22          1.2300     0.6270    -0.4440 h1         1 39Q       0.092700
     60 H10          1.1790     1.1180     2.5710 hc         1 39Q       0.061700
     61 H11          1.6990     2.2310     1.3250 hc         1 39Q       0.061700
     62 H27         -0.1630     2.9330    -0.4750 ha         1 39Q       0.108500
     63 H23         -1.0590     1.2360     3.4000 ha         1 39Q       0.108500
     64 H12         -2.4860     3.8010    -0.6230 ha         1 39Q       0.121500
     65 H13         -3.3570     2.0990     3.2590 ha         1 39Q       0.121500
     66 H24         -6.3240     3.7810     1.8350 h1         1 39Q       0.040367
     67 H25         -5.5720     2.2460     2.3150 h1         1 39Q       0.040367
     68 H26         -5.0810     3.7700     3.1030 h1         1 39Q       0.040367
     69 H28          3.4900     1.2040     0.0540 hn         1 39Q       0.322500
     70 H29          5.1320    -1.0310     1.1830 h1         1 39Q       0.093700
     71 H40          7.6570     1.8540     3.0390 hc         1 39Q       0.050033
     72 H41          6.8380     0.3480     3.5070 hc         1 39Q       0.050033
     73 H42          8.5930     0.3610     3.2620 hc         1 39Q       0.050033
     74 H43          8.2600     0.7790    -0.5730 h1         1 39Q       0.029200
     75 H44          8.5960     2.0650     0.6020 h1         1 39Q       0.029200
     76 H45         10.4550     0.7610     0.1760 ho         1 39Q       0.447000
     77 H30          5.5370     0.0280    -1.6580 hc         1 39Q       0.060200
     78 H31          6.4480    -1.2480    -0.8810 hc         1 39Q       0.060200
     79 H36          5.3090    -3.4770    -0.3410 ha         1 39Q       0.109000
     80 H35          3.6670    -5.1510    -1.1660 ha         1 39Q       0.115500
     81 H34          1.8680    -4.4640    -2.7500 ha         1 39Q       0.116000
     82 H33          1.7200    -2.0940    -3.5130 ha         1 39Q       0.115500
     83 H32          3.3620    -0.4170    -2.6980 ha         1 39Q       0.109000
     84 H39          7.4580    -0.6830     1.3130 hc         1 39Q       0.070700
@<TRIPOS>BOND
     1     1     2 2   
     2     1     3 1   
     3     1    10 1   
     4     3     4 1   
     5     3    43 1   
     6     3    44 1   
     7     4     6 1   
     8     4     7 1   
     9     5     8 1   
    10     5     9 1   
    11     6     8 1   
    12     6    45 1   
    13     6    46 1   
    14     7     9 1   
    15     7    47 1   
    16     7    48 1   
    17     8    49 1   
    18     8    50 1   
    19     9    51 1   
    20     9    52 1   
    21    10    11 1   
    22    10    53 1   
    23    11    12 1   
    24    11    13 1   
    25    11    54 1   
    26    12    55 1   
    27    12    56 1   
    28    12    57 1   
    29    13    14 2   
    30    13    15 1   
    31    15    16 1   
    32    15    58 1   
    33    16    17 1   
    34    16    26 1   
    35    16    59 1   
    36    17    18 1   
    37    17    60 1   
    38    17    61 1   
    39    18    19 ar  
    40    18    25 ar  
    41    19    20 ar  
    42    19    62 1   
    43    20    21 ar  
    44    20    64 1   
    45    21    22 1   
    46    21    24 ar  
    47    22    23 1   
    48    23    66 1   
    49    23    67 1   
    50    23    68 1   
    51    24    25 ar  
    52    24    65 1   
    53    25    63 1   
    54    26    27 2   
    55    26    28 1   
    56    28    29 1   
    57    28    69 1   
    58    29    30 1   
    59    29    36 1   
    60    29    70 1   
    61    30    31 2   
    62    30    32 1   
    63    32    33 1   
    64    32    34 1   
    65    32    84 1   
    66    33    71 1   
    67    33    72 1   
    68    33    73 1   
    69    34    35 1   
    70    34    74 1   
    71    34    75 1   
    72    35    76 1   
    73    36    37 1   
    74    36    77 1   
    75    36    78 1   
    76    37    38 ar  
    77    37    42 ar  
    78    38    39 ar  
    79    38    79 1   
    80    39    40 ar  
    81    39    80 1   
    82    40    41 ar  
    83    40    81 1   
    84    41    42 ar  
    85    41    82 1   
    86    42    83 1   
@<TRIPOS>SUBSTRUCTURE
     1 39Q         1 TEMP              0 ****  ****    0 ROOT
