@<TRIPOS>MOLECULE
39S
   83    85     1     0     0
SMALL
No Charge or Current Charge


@<TRIPOS>ATOM
      1 N7          12.1920     0.5250     0.7720 nc         1 39S      -0.769300
      2 C23         12.4010    -0.3800     1.6830 cd         1 39S       0.742800
      3 N6          13.3870    -0.1070     2.5160 nv         1 39S      -1.044200
      4 N5          11.7540    -1.5380     1.8550 ns         1 39S      -0.444400
      5 C22         10.7370    -1.9360     1.0610 c          1 39S       0.605200
      6 O5          10.1530    -2.9970     1.2280 o          1 39S      -0.539000
      7 C21         10.4270    -0.9480    -0.0070 cd         1 39S      -0.240200
      8 N8           9.3990    -1.1900    -0.9340 nu         1 39S      -0.712200
      9 C18          8.9890    -0.1230    -1.9100 c6         1 39S       0.152500
     10 C19         10.1920     0.8450    -2.2320 c6         1 39S       0.199800
     11 N4          10.9990     1.1620    -1.0260 nu         1 39S      -0.824200
     12 C20         11.1760     0.2170    -0.0750 cc         1 39S       0.436600
     13 C17          7.7520     0.6980    -1.4000 c3         1 39S       0.237800
     14 N3           6.5540    -0.1330    -1.1400 nu         1 39S      -0.966200
     15 C13          2.8010     1.2080     0.2760 ca         1 39S      -0.152600
     16 C26          3.2630    -0.1030     0.5510 ca         1 39S      -0.033000
     17 C25          4.5130    -0.5320     0.0710 ca         1 39S      -0.208000
     18 C16          5.3230     0.3270    -0.6820 ca         1 39S       0.309000
     19 C15          4.8730     1.6260    -0.9630 ca         1 39S      -0.208000
     20 C14          3.6250     2.0640    -0.4890 ca         1 39S      -0.033000
     21 O4           1.0670     2.8480     0.5280 o          1 39S      -0.642100
     22 N2           0.7060     0.8320     1.5210 ns         1 39S      -0.425900
     23 C11         -0.6410     1.1040     2.0820 c3         1 39S      -0.054300
     24 C27         -0.7500     0.5140     3.5210 c          1 39S       0.714000
     25 O7          -0.3880    -0.6400     3.7070 o          1 39S      -0.738000
     26 C10         -1.7770     0.5730     1.1680 c3         1 39S      -0.059400
     27 C9          -1.8080     1.2010    -0.2470 c3         1 39S      -0.161400
     28 C8          -3.0290     0.7250    -1.0430 c          1 39S       0.604100
     29 O3          -3.1040    -0.3990    -1.5210 o          1 39S      -0.656100
     30 O6          -1.1030     1.2580     4.4240 o          1 39S      -0.738000
     31 N1          -4.0160     1.6730    -1.2080 ns         1 39S      -0.452900
     32 C7          -5.3080     1.4670    -1.9080 c3         1 39S      -0.038300
     33 C28         -5.6680     2.7250    -2.7600 c          1 39S       0.717000
     34 O8          -5.6400     3.8250    -2.2230 o          1 39S      -0.748000
     35 C6          -6.4520     1.1040    -0.9260 c3         1 39S      -0.059400
     36 C5          -6.2350    -0.2150    -0.1440 c3         1 39S      -0.166400
     37 C4          -7.4510    -0.5550     0.7270 c          1 39S       0.602100
     38 O2          -7.6920     0.0330     1.7730 o          1 39S      -0.658100
     39 O9          -5.8810     2.5720    -3.9550 o          1 39S      -0.748000
     40 N           -8.2210    -1.6000     0.2600 ns         1 39S      -0.450900
     41 C           -9.4650    -2.1070     0.8900 c3         1 39S      -0.039300
     42 C29         -9.4900    -3.6690     0.8570 c          1 39S       0.715000
     43 O11         -9.2980    -4.2370    -0.2100 o          1 39S      -0.752000
     44 C1         -10.7400    -1.5110     0.2350 c3         1 39S      -0.053400
     45 C2         -10.8710     0.0310     0.3500 c3         1 39S      -0.198400
     46 C3         -12.2300     0.4920    -0.2080 c          1 39S       0.712000
     47 O          -12.3100     0.7530    -1.3990 o          1 39S      -0.773500
     48 O1         -13.1850     0.5320     0.5520 o          1 39S      -0.773500
     49 O10         -9.6170    -4.2690     1.9160 o          1 39S      -0.752000
     50 H1          13.9490     0.6790     2.2130 hn         1 39S       0.491500
     51 H2          13.9070    -0.8900     2.8910 hn         1 39S       0.491500
     52 H4           8.9150    -2.0920    -0.9070 hn         1 39S       0.424000
     53 H6           8.6830    -0.5910    -2.8580 h1         1 39S       0.070700
     54 H7          10.8390     0.3520    -2.9720 h1         1 39S       0.039200
     55 H8           9.8160     1.7650    -2.7040 h1         1 39S       0.039200
     56 H9          11.7710     1.8230    -1.0820 hn         1 39S       0.499000
     57 H10          8.0380     1.2280    -0.4810 h1         1 39S       0.031700
     58 H11          7.5150     1.4560    -2.1600 h1         1 39S       0.031700
     59 H12          6.7580    -1.0960    -0.8730 hn         1 39S       0.495000
     60 H13          2.6690    -0.8030     1.1320 ha         1 39S       0.127500
     61 H14          4.8500    -1.5410     0.2920 ha         1 39S       0.095000
     62 H15          5.4820     2.3050    -1.5530 ha         1 39S       0.095000
     63 H16          3.2980     3.0760    -0.7220 ha         1 39S       0.127500
     64 H39         12.0020    -2.1510     2.6120 hn         1 39S       0.324500
     65 H17          1.1130    -0.0760     1.7060 hn         1 39S       0.294500
     66 H18         -0.7620     2.1910     2.1830 h1         1 39S       0.071700
     67 H19         -1.6910    -0.5180     1.0790 hc         1 39S       0.058200
     68 H20         -2.7380     0.7700     1.6610 hc         1 39S       0.058200
     69 H21         -1.8330     2.2920    -0.1400 hc         1 39S       0.044700
     70 H22         -0.9020     0.9010    -0.7870 hc         1 39S       0.044700
     71 H24         -3.8400     2.5860    -0.8030 hn         1 39S       0.296500
     72 H25         -5.1880     0.6350    -2.6140 h1         1 39S       0.056700
     73 H26         -6.5930     1.9280    -0.2140 hc         1 39S       0.051200
     74 H27         -7.3860     1.0230    -1.4960 hc         1 39S       0.051200
     75 H28         -6.0560    -1.0190    -0.8680 hc         1 39S       0.049200
     76 H29         -5.3620    -0.1000     0.5090 hc         1 39S       0.049200
     77 H31         -7.9120    -2.0410    -0.5980 hn         1 39S       0.291500
     78 H32         -9.4590    -1.8160     1.9480 h1         1 39S       0.046700
     79 H33        -10.7720    -1.7970    -0.8230 hc         1 39S       0.042200
     80 H34        -11.6160    -1.9730     0.7080 hc         1 39S       0.042200
     81 H35        -10.8010     0.2590     1.4210 hc         1 39S       0.015700
     82 H36        -10.0530     0.4520    -0.2460 hc         1 39S       0.015700
     83 C12          1.4610     1.7140     0.7720 c          1 39S       0.605700
@<TRIPOS>BOND
     1     1     2 2   
     2     1    12 1   
     3     2     3 1   
     4     2     4 1   
     5     3    50 1   
     6     3    51 1   
     7     4     5 1   
     8     4    64 1   
     9     5     6 2   
    10     5     7 1   
    11     7     8 1   
    12     7    12 2   
    13     8     9 1   
    14     8    52 1   
    15     9    10 1   
    16     9    13 1   
    17     9    53 1   
    18    10    11 1   
    19    10    54 1   
    20    10    55 1   
    21    11    12 1   
    22    11    56 1   
    23    13    14 1   
    24    13    57 1   
    25    13    58 1   
    26    14    18 1   
    27    14    59 1   
    28    15    16 ar  
    29    15    20 ar  
    30    15    83 1   
    31    16    17 ar  
    32    16    60 1   
    33    17    18 ar  
    34    17    61 1   
    35    18    19 ar  
    36    19    20 ar  
    37    19    62 1   
    38    20    63 1   
    39    21    83 2   
    40    22    23 1   
    41    22    65 1   
    42    22    83 1   
    43    23    24 1   
    44    23    26 1   
    45    23    66 1   
    46    24    25 1   
    47    24    30 1   
    48    26    27 1   
    49    26    67 1   
    50    26    68 1   
    51    27    28 1   
    52    27    69 1   
    53    27    70 1   
    54    28    29 2   
    55    28    31 1   
    56    31    32 1   
    57    31    71 1   
    58    32    33 1   
    59    32    35 1   
    60    32    72 1   
    61    33    34 1   
    62    33    39 1   
    63    35    36 1   
    64    35    73 1   
    65    35    74 1   
    66    36    37 1   
    67    36    75 1   
    68    36    76 1   
    69    37    38 2   
    70    37    40 1   
    71    40    41 1   
    72    40    77 1   
    73    41    42 1   
    74    41    44 1   
    75    41    78 1   
    76    42    43 1   
    77    42    49 1   
    78    44    45 1   
    79    44    79 1   
    80    44    80 1   
    81    45    46 1   
    82    45    81 1   
    83    45    82 1   
    84    46    47 1   
    85    46    48 1   
@<TRIPOS>SUBSTRUCTURE
     1 39S         1 TEMP              0 ****  ****    0 ROOT
