@<TRIPOS>MOLECULE
39S
   83    85     1     0     0
SMALL
bcc


@<TRIPOS>ATOM
      1 N7          11.1660    -0.2190     0.9570 nc         1 39S      -0.769300
      2 C23         11.0050    -1.4700     0.6220 cd         1 39S       0.742800
      3 N6          11.5340    -2.4400     1.3890 nv         1 39S      -0.933800
      4 N5          10.2860    -1.8480    -0.4590 ns         1 39S      -0.511400
      5 C22          9.6240    -0.9490    -1.3060 c          1 39S       0.747700
      6 O5           8.9620    -1.3890    -2.2430 o          1 39S      -0.614500
      7 C21          9.8310     0.4080    -0.9640 cd         1 39S      -0.240200
      8 N8           9.1810     1.4210    -1.7120 nu         1 39S      -0.657000
      9 C18          8.9320     2.6260    -0.9430 c6         1 39S       0.152500
     10 C19         10.1920     3.0910    -0.2060 c6         1 39S       0.199800
     11 N4          10.7510     1.9900     0.5410 nu         1 39S      -0.769000
     12 C20         10.5870     0.7110     0.1610 cc         1 39S       0.436600
     13 C17          7.7740     2.4040     0.0310 c3         1 39S       0.237800
     14 N3           6.6800     1.7790    -0.6640 nu         1 39S      -0.772600
     15 C13          3.0590     0.6920     1.1500 ca         1 39S      -0.152600
     16 C26          3.3990     0.2510    -0.1340 ca         1 39S      -0.051000
     17 C25          4.5930     0.6020    -0.7240 ca         1 39S      -0.226000
     18 C16          5.5210     1.4220    -0.0530 ca         1 39S       0.170600
     19 C15          5.1810     1.8680     1.2350 ca         1 39S      -0.226000
     20 C14          3.9750     1.5120     1.8070 ca         1 39S      -0.051000
     21 O4           1.4300     0.9780     2.8400 o          1 39S      -0.642100
     22 N2           1.0360    -0.6180     1.2940 ns         1 39S      -0.492900
     23 C11         -0.1350    -1.1540     1.9450 c3         1 39S      -0.054300
     24 C27          0.2110    -2.2330     3.0070 c          1 39S       0.924600
     25 O7           1.4020    -2.5660     3.1250 o          1 39S      -0.843300
     26 C10         -1.1110    -1.7000     0.9050 c3         1 39S      -0.059400
     27 C9          -1.6010    -0.6300    -0.0620 c3         1 39S      -0.161400
     28 C8          -2.6090    -1.1630    -1.0580 c          1 39S       0.671100
     29 O3          -2.5140    -2.2870    -1.5400 o          1 39S      -0.656100
     30 O6          -0.7640    -2.6720     3.6490 o          1 39S      -0.843300
     31 N1          -3.6150    -0.3270    -1.3560 ns         1 39S      -0.519900
     32 C7          -4.5500    -0.5730    -2.4280 c3         1 39S      -0.038300
     33 C28         -3.9280    -0.3620    -3.8350 c          1 39S       0.927600
     34 O8          -2.7760     0.0980    -3.8970 o          1 39S      -0.853300
     35 C6          -5.7840     0.3070    -2.2350 c3         1 39S      -0.059400
     36 C5          -6.5160     0.0130    -0.9340 c3         1 39S      -0.166400
     37 C4          -7.7330     0.8860    -0.7140 c          1 39S       0.669100
     38 O2          -7.8190     2.0170    -1.1800 o          1 39S      -0.658100
     39 O9          -4.6700    -0.6760    -4.7870 o          1 39S      -0.853300
     40 N           -8.7050     0.3260     0.0230 ns         1 39S      -0.517900
     41 C           -9.7840     1.0960     0.5990 c3         1 39S      -0.039300
     42 C29         -9.2930     2.0850     1.6880 c          1 39S       0.925600
     43 O11         -8.1370     1.9470     2.1220 o          1 39S      -0.857300
     44 C1         -10.8390     0.1470     1.1690 c3         1 39S      -0.053400
     45 C2         -11.5340    -0.6980     0.1130 c3         1 39S      -0.198400
     46 C3         -12.6210    -1.6540     0.6350 c          1 39S       0.922600
     47 O          -12.7700    -1.7520     1.8690 o          1 39S      -0.878800
     48 O1         -13.2710    -2.2700    -0.2360 o          1 39S      -0.878800
     49 O10        -10.1370     2.9320     2.0490 o          1 39S      -0.857300
     50 H1          12.2040    -2.1610     2.0850 hn         1 39S       0.436300
     51 H2          11.6290    -3.3760     1.0340 hn         1 39S       0.436300
     52 H4           9.6640     1.6390    -2.5740 hn         1 39S       0.368800
     53 H6           8.6460     3.4090    -1.6480 h1         1 39S       0.070700
     54 H7          10.9060     3.4780    -0.9390 h1         1 39S       0.039200
     55 H8           9.9660     3.9060     0.4840 h1         1 39S       0.039200
     56 H9          11.2610     2.1670     1.3890 hn         1 39S       0.443800
     57 H10          8.1010     1.8050     0.8920 h1         1 39S       0.031700
     58 H11          7.4710     3.3780     0.4250 h1         1 39S       0.031700
     59 H12          6.9790     1.2240    -1.4560 hn         1 39S       0.439800
     60 H13          2.7210    -0.3660    -0.7110 ha         1 39S       0.145500
     61 H14          4.8190     0.2500    -1.7240 ha         1 39S       0.113000
     62 H15          5.8590     2.4980     1.7940 ha         1 39S       0.113000
     63 H16          3.7430     1.8770     2.7990 ha         1 39S       0.145500
     64 H39         10.1790    -2.8310    -0.6720 hn         1 39S       0.324500
     65 H17          1.4840    -1.2350     0.6350 hn         1 39S       0.294500
     66 H18         -0.6250    -0.3290     2.4690 h1         1 39S       0.071700
     67 H19         -0.6440    -2.5180     0.3490 hc         1 39S       0.058200
     68 H20         -1.9580    -2.1310     1.4390 hc         1 39S       0.058200
     69 H21         -2.0240     0.2090     0.4970 hc         1 39S       0.044700
     70 H22         -0.7590    -0.2220    -0.6290 hc         1 39S       0.044700
     71 H24         -3.5490     0.6190    -1.0150 hn         1 39S       0.296500
     72 H25         -4.8660    -1.6190    -2.3630 h1         1 39S       0.056700
     73 H26         -5.4910     1.3600    -2.2690 hc         1 39S       0.051200
     74 H27         -6.4520     0.1440    -3.0800 hc         1 39S       0.051200
     75 H28         -6.7980    -1.0430    -0.8960 hc         1 39S       0.049200
     76 H29         -5.8510     0.1710    -0.0780 hc         1 39S       0.049200
     77 H31         -8.4900    -0.5540     0.4650 hn         1 39S       0.291500
     78 H32        -10.2500     1.6840    -0.1980 h1         1 39S       0.046700
     79 H33        -10.3740    -0.4950     1.9230 hc         1 39S       0.042200
     80 H34        -11.5780     0.7500     1.6990 hc         1 39S       0.042200
     81 H35        -11.9860    -0.0400    -0.6380 hc         1 39S       0.015700
     82 H36        -10.8000    -1.2940    -0.4420 hc         1 39S       0.015700
     83 C12          1.7830     0.3600     1.8390 c          1 39S       0.672700
@<TRIPOS>BOND
     1     1     2 2   
     2     1    12 1   
     3     2     3 1   
     4     2     4 1   
     5     3    50 1   
     6     3    51 1   
     7     4     5 1   
     8     4    64 1   
     9     5     6 2   
    10     5     7 1   
    11     7     8 1   
    12     7    12 2   
    13     8     9 1   
    14     8    52 1   
    15     9    10 1   
    16     9    13 1   
    17     9    53 1   
    18    10    11 1   
    19    10    54 1   
    20    10    55 1   
    21    11    12 1   
    22    11    56 1   
    23    13    14 1   
    24    13    57 1   
    25    13    58 1   
    26    14    18 1   
    27    14    59 1   
    28    15    16 ar  
    29    15    20 ar  
    30    15    83 1   
    31    16    17 ar  
    32    16    60 1   
    33    17    18 ar  
    34    17    61 1   
    35    18    19 ar  
    36    19    20 ar  
    37    19    62 1   
    38    20    63 1   
    39    21    83 2   
    40    22    23 1   
    41    22    65 1   
    42    22    83 1   
    43    23    24 1   
    44    23    26 1   
    45    23    66 1   
    46    24    25 1   
    47    24    30 1   
    48    26    27 1   
    49    26    67 1   
    50    26    68 1   
    51    27    28 1   
    52    27    69 1   
    53    27    70 1   
    54    28    29 2   
    55    28    31 1   
    56    31    32 1   
    57    31    71 1   
    58    32    33 1   
    59    32    35 1   
    60    32    72 1   
    61    33    34 1   
    62    33    39 1   
    63    35    36 1   
    64    35    73 1   
    65    35    74 1   
    66    36    37 1   
    67    36    75 1   
    68    36    76 1   
    69    37    38 2   
    70    37    40 1   
    71    40    41 1   
    72    40    77 1   
    73    41    42 1   
    74    41    44 1   
    75    41    78 1   
    76    42    43 1   
    77    42    49 1   
    78    44    45 1   
    79    44    79 1   
    80    44    80 1   
    81    45    46 1   
    82    45    81 1   
    83    45    82 1   
    84    46    47 1   
    85    46    48 1   
@<TRIPOS>SUBSTRUCTURE
     1 39S         1 TEMP              0 ****  ****    0 ROOT
