@<TRIPOS>MOLECULE
39U
   27    28     1     0     0
SMALL
No Charge or Current Charge


@<TRIPOS>ATOM
      1 C13         -2.0650     2.2360    -0.9580 c3         1 39U      -0.086600
      2 C01          0.6400    -0.7290     0.0920 cc         1 39U      -0.349600
      3 C02          0.2910     0.5340     0.5200 cd         1 39U       0.389300
      4 N03          1.3530     1.4220     0.6340 nd         1 39U      -0.743000
      5 S04          2.3680    -0.8950    -0.0660 ss         1 39U      -0.021400
      6 C05          2.4550     0.8000     0.3250 cc         1 39U       0.701300
      7 C06         -0.2990    -1.8480    -0.0950 c          1 39U       0.610600
      8 N07         -1.6100    -1.5260    -0.3570 ns         1 39U      -0.494900
      9 C08         -1.0740     0.9580     0.9980 c3         1 39U      -0.107700
     10 C09         -2.1770     0.9510    -0.0950 c3         1 39U      -0.052000
     11 O10          0.0470    -3.0160    -0.0720 o          1 39U      -0.564000
     12 N11          3.5860     1.5100     0.3710 nv         1 39U      -1.052900
     13 C12         -2.0340    -0.2880    -1.0240 c3         1 39U       0.111000
     14 C14         -3.5700     0.9270     0.5890 c3         1 39U      -0.086600
     15 H1          -1.0820     2.3040    -1.4390 hc         1 39U       0.038367
     16 H2          -2.8280     2.2460    -1.7460 hc         1 39U       0.038367
     17 H3          -2.2030     3.1350    -0.3450 hc         1 39U       0.038367
     18 H4          -2.2390    -2.3180    -0.4130 hn         1 39U       0.312500
     19 H5          -1.3650     0.2770     1.8070 hc         1 39U       0.066200
     20 H6          -1.0250     1.9500     1.4640 hc         1 39U       0.066200
     21 H7           3.4460     2.5130     0.3750 hn         1 39U       0.489000
     22 H8           4.3670     1.1680    -0.1760 hn         1 39U       0.489000
     23 H9          -1.2900    -0.0690    -1.8020 h1         1 39U       0.046200
     24 H10         -2.9840    -0.4750    -1.5420 h1         1 39U       0.046200
     25 H11         -4.3750     0.9650    -0.1550 hc         1 39U       0.038367
     26 H12         -3.7030     0.0130     1.1810 hc         1 39U       0.038367
     27 H13         -3.6910     1.7860     1.2610 hc         1 39U       0.038367
@<TRIPOS>BOND
     1     1    10 1   
     2     1    15 1   
     3     1    16 1   
     4     1    17 1   
     5     2     3 2   
     6     2     5 1   
     7     2     7 1   
     8     3     4 1   
     9     3     9 1   
    10     4     6 2   
    11     5     6 1   
    12     6    12 1   
    13     7     8 1   
    14     7    11 2   
    15     8    13 1   
    16     8    18 1   
    17     9    10 1   
    18     9    19 1   
    19     9    20 1   
    20    10    13 1   
    21    10    14 1   
    22    12    21 1   
    23    12    22 1   
    24    13    23 1   
    25    13    24 1   
    26    14    25 1   
    27    14    26 1   
    28    14    27 1   
@<TRIPOS>SUBSTRUCTURE
     1 39U         1 TEMP              0 ****  ****    0 ROOT
