@<TRIPOS>MOLECULE
39U
   27    28     1     0     0
SMALL
abcg2


@<TRIPOS>ATOM
      1 C13         -2.1230     2.2150    -0.9630 c3         1 39U      -0.086600
      2 C01          0.5630    -0.6690     0.0740 cc         1 39U      -0.349600
      3 C02          0.2710     0.5850     0.5310 cd         1 39U       0.389300
      4 N03          1.3290     1.4310     0.6490 nd         1 39U      -0.743000
      5 S04          2.2730    -0.8200    -0.1820 ss         1 39U      -0.021400
      6 C05          2.4430     0.8420     0.3020 cc         1 39U       0.701300
      7 C06         -0.3330    -1.8120    -0.0730 c          1 39U       0.610600
      8 N07         -1.6170    -1.4880    -0.3560 ns         1 39U      -0.494900
      9 C08         -1.0950     0.9950     0.9830 c3         1 39U      -0.107700
     10 C09         -2.1910     0.9560    -0.1010 c3         1 39U      -0.052000
     11 O10          0.0570    -2.9670     0.0680 o          1 39U      -0.564000
     12 N11          3.6460     1.4360     0.3430 nv         1 39U      -1.052900
     13 C12         -1.9880    -0.2520    -1.0240 c3         1 39U       0.111000
     14 C14         -3.5470     0.8650     0.5950 c3         1 39U      -0.086600
     15 H1          -1.1360     2.3370    -1.4140 hc         1 39U       0.038367
     16 H2          -2.8540     2.1770    -1.7740 hc         1 39U       0.038367
     17 H3          -2.3310     3.1070    -0.3700 hc         1 39U       0.038367
     18 H4          -2.2550    -2.2660    -0.4360 hn         1 39U       0.312500
     19 H5          -1.3900     0.3270     1.7980 hc         1 39U       0.066200
     20 H6          -1.0440     1.9970     1.4110 hc         1 39U       0.066200
     21 H7           3.6610     2.4390     0.4320 hn         1 39U       0.489000
     22 H8           4.4270     1.0320    -0.1440 hn         1 39U       0.489000
     23 H9          -1.2280    -0.0140    -1.7740 h1         1 39U       0.046200
     24 H10         -2.9120    -0.4430    -1.5710 h1         1 39U       0.046200
     25 H11         -4.3650     0.9270    -0.1250 hc         1 39U       0.038367
     26 H12         -3.6460    -0.0780     1.1370 hc         1 39U       0.038367
     27 H13         -3.6770     1.6740     1.3170 hc         1 39U       0.038367
@<TRIPOS>BOND
     1     1    10 1   
     2     1    15 1   
     3     1    16 1   
     4     1    17 1   
     5     2     3 2   
     6     2     5 1   
     7     2     7 1   
     8     3     4 1   
     9     3     9 1   
    10     4     6 2   
    11     5     6 1   
    12     6    12 1   
    13     7     8 1   
    14     7    11 2   
    15     8    13 1   
    16     8    18 1   
    17     9    10 1   
    18     9    19 1   
    19     9    20 1   
    20    10    13 1   
    21    10    14 1   
    22    12    21 1   
    23    12    22 1   
    24    13    23 1   
    25    13    24 1   
    26    14    25 1   
    27    14    26 1   
    28    14    27 1   
@<TRIPOS>SUBSTRUCTURE
     1 39U         1 TEMP              0 ****  ****    0 ROOT
