@<TRIPOS>MOLECULE
39V
   86    90     1     0     0
SMALL
bcc


@<TRIPOS>ATOM
      1 C59          7.0730     0.5740    -2.2750 c3         1 39V      -0.047900
      2 C58          6.5110    -0.2480    -1.1660 ce         1 39V       0.032600
      3 C57          7.2790    -1.3040    -0.5070 ca         1 39V      -0.085800
      4 C56          8.5800    -1.7430    -0.7270 ca         1 39V      -0.094000
      5 C55          9.0690    -2.7850     0.0510 ca         1 39V      -0.136000
      6 C54          8.2750    -3.3760     1.0300 ca         1 39V      -0.119000
      7 C53          6.9730    -2.9350     1.2520 ca         1 39V      -0.117000
      8 C52          6.4850    -1.8990     0.4780 ca         1 39V      -0.077300
      9 C51          5.1500    -1.2280     0.4930 c5         1 39V      -0.004900
     10 C50          5.2820    -0.1990    -0.5980 cf         1 39V      -0.217400
     11 C2           4.2020     0.7220    -0.9930 c          1 39V       0.696300
     12 O3           4.2770     1.4500    -1.9780 o          1 39V      -0.617100
     13 N1           3.1120     0.7040    -0.1990 ns         1 39V      -0.565900
     14 C11          1.9810     1.5730    -0.4020 c3         1 39V       0.038700
     15 C12          2.2050     2.9650     0.2000 c3         1 39V      -0.113100
     16 C13          0.7650     0.9330     0.2540 c          1 39V       0.668100
     17 O14          0.8690     0.2090     1.2320 o          1 39V      -0.620100
     18 N15         -0.4060     1.2890    -0.2890 ns         1 39V      -0.538900
     19 C16         -1.6810     0.9250     0.2580 c3         1 39V       0.035700
     20 C26         -2.1930    -0.3720    -0.3670 c          1 39V       0.656100
     21 O27         -1.7400    -0.8270    -1.4020 o          1 39V      -0.593100
     22 C17         -2.6980     2.0650     0.0510 c3         1 39V      -0.009200
     23 C66         -2.2080     3.3510     0.6290 cc         1 39V      -0.148400
     24 C65         -2.3090     3.7520     1.9320 cd         1 39V      -0.100100
     25 C67         -1.4530     4.3650    -0.0420 ca         1 39V      -0.093800
     26 N69         -1.6630     4.9420     2.1080 na         1 39V      -0.169400
     27 C68         -1.1240     5.3440     0.9220 ca         1 39V      -0.049200
     28 C63         -1.0180     4.5410    -1.3610 ca         1 39V      -0.091000
     29 C60         -0.3720     6.4750     0.6060 ca         1 39V      -0.144000
     30 C62         -0.2730     5.6590    -1.6790 ca         1 39V      -0.152000
     31 C61          0.0490     6.6160    -0.7020 ca         1 39V      -0.109000
     32 N28         -3.1970    -0.9560     0.3080 ns         1 39V      -0.557900
     33 C29         -3.8890    -2.0960    -0.2220 c3         1 39V       0.018700
     34 C31         -4.6130    -1.7650    -1.5230 c          1 39V       0.565100
     35 O32         -4.9580    -0.6380    -1.7820 o          1 39V      -0.513100
     36 C37         -4.8710    -2.9360    -2.4410 c3         1 39V      -0.164700
     37 C38         -3.7060    -3.0280    -3.4350 c3         1 39V      -0.080100
     38 C39         -6.2180    -2.7960    -3.1380 c3         1 39V       0.148400
     39 O40         -6.4440    -3.9600    -3.8980 oh         1 39V      -0.599800
     40 C30         -4.9270    -2.6050     0.7920 c3         1 39V      -0.042100
     41 C41         -4.2930    -3.0260     2.0900 ca         1 39V      -0.086300
     42 C42         -3.5340    -4.1930     2.1590 ca         1 39V      -0.124000
     43 C43         -2.9250    -4.5710     3.3460 ca         1 39V      -0.122000
     44 C44         -3.0660    -3.7860     4.4850 ca         1 39V      -0.122000
     45 C45         -3.8240    -2.6260     4.4280 ca         1 39V      -0.122000
     46 C46         -4.4330    -2.2500     3.2360 ca         1 39V      -0.124000
     47 H4           8.1560     0.4760    -2.3220 hc         1 39V       0.054700
     48 H5           6.6740     0.2510    -3.2380 hc         1 39V       0.054700
     49 H6           6.8290     1.6280    -2.1660 hc         1 39V       0.054700
     50 H7           9.2070    -1.2890    -1.4850 ha         1 39V       0.135000
     51 H8          10.0790    -3.1400    -0.1050 ha         1 39V       0.130000
     52 H9           8.6760    -4.1870     1.6250 ha         1 39V       0.130000
     53 H10          6.3590    -3.3970     2.0150 ha         1 39V       0.134000
     54 H11          4.3390    -1.9380     0.3000 hc         1 39V       0.076700
     55 H12          4.9410    -0.7810     1.4720 hc         1 39V       0.076700
     56 H1           3.1030     0.1480     0.6430 hn         1 39V       0.334500
     57 H13          1.8070     1.6740    -1.4750 h1         1 39V       0.084700
     58 H14          3.0620     3.4390    -0.2770 hc         1 39V       0.051700
     59 H15          1.3360     3.6060     0.0520 hc         1 39V       0.051700
     60 H16          2.4030     2.8910     1.2700 hc         1 39V       0.051700
     61 H17         -0.3930     1.8080    -1.1530 hn         1 39V       0.329500
     62 H18         -1.5590     0.7740     1.3340 h1         1 39V       0.086700
     63 H2          -2.9020     2.1790    -1.0180 hc         1 39V       0.060700
     64 H3          -3.6450     1.7740     0.5090 hc         1 39V       0.060700
     65 H24         -2.7980     3.2660     2.7620 h4         1 39V       0.161000
     66 H34         -1.6000     5.4390     2.9810 hn         1 39V       0.301700
     67 H19         -1.2670     3.8180    -2.1300 ha         1 39V       0.131000
     68 H23         -0.1260     7.2140     1.3580 ha         1 39V       0.132000
     69 H20          0.0700     5.8040    -2.6950 ha         1 39V       0.133000
     70 H22          0.6350     7.4820    -0.9800 ha         1 39V       0.131000
     71 H25         -3.5430    -0.5200     1.1480 hn         1 39V       0.322500
     72 H26         -3.1760    -2.9040    -0.4190 h1         1 39V       0.086700
     73 H37         -2.7460    -3.0930    -2.9240 hc         1 39V       0.050367
     74 H38         -3.8110    -3.9130    -4.0600 hc         1 39V       0.050367
     75 H39         -3.6840    -2.1510    -4.0820 hc         1 39V       0.050367
     76 H40         -7.0050    -2.6530    -2.3860 h1         1 39V       0.028200
     77 H41         -6.2070    -1.8980    -3.7680 h1         1 39V       0.028200
     78 H42         -7.2740    -3.8520    -4.3700 ho         1 39V       0.407000
     79 H27         -5.6710    -1.8240     0.9680 hc         1 39V       0.060200
     80 H28         -5.4600    -3.4500     0.3490 hc         1 39V       0.060200
     81 H33         -3.4240    -4.8150     1.2780 ha         1 39V       0.127500
     82 H32         -2.3410    -5.4820     3.3840 ha         1 39V       0.132500
     83 H31         -2.5900    -4.0810     5.4110 ha         1 39V       0.133000
     84 H30         -3.9450    -2.0110     5.3100 ha         1 39V       0.132500
     85 H29         -5.0310    -1.3460     3.2030 ha         1 39V       0.127500
     86 H36         -4.8800    -3.8500    -1.8370 hc         1 39V       0.067700
@<TRIPOS>BOND
     1     1     2 1   
     2     1    47 1   
     3     1    48 1   
     4     1    49 1   
     5     2     3 1   
     6     2    10 2   
     7     3     4 ar  
     8     3     8 ar  
     9     4     5 ar  
    10     4    50 1   
    11     5     6 ar  
    12     5    51 1   
    13     6     7 ar  
    14     6    52 1   
    15     7     8 ar  
    16     7    53 1   
    17     8     9 1   
    18     9    10 1   
    19     9    54 1   
    20     9    55 1   
    21    10    11 1   
    22    11    12 2   
    23    11    13 1   
    24    13    14 1   
    25    13    56 1   
    26    14    15 1   
    27    14    16 1   
    28    14    57 1   
    29    15    58 1   
    30    15    59 1   
    31    15    60 1   
    32    16    17 2   
    33    16    18 1   
    34    18    19 1   
    35    18    61 1   
    36    19    20 1   
    37    19    22 1   
    38    19    62 1   
    39    20    21 2   
    40    20    32 1   
    41    22    23 1   
    42    22    63 1   
    43    22    64 1   
    44    23    24 2   
    45    23    25 1   
    46    24    26 1   
    47    24    65 1   
    48    25    27 ar  
    49    25    28 ar  
    50    26    27 1   
    51    26    66 1   
    52    27    29 ar  
    53    28    30 ar  
    54    28    67 1   
    55    29    31 ar  
    56    29    68 1   
    57    30    31 ar  
    58    30    69 1   
    59    31    70 1   
    60    32    33 1   
    61    32    71 1   
    62    33    34 1   
    63    33    40 1   
    64    33    72 1   
    65    34    35 2   
    66    34    36 1   
    67    36    37 1   
    68    36    38 1   
    69    36    86 1   
    70    37    73 1   
    71    37    74 1   
    72    37    75 1   
    73    38    39 1   
    74    38    76 1   
    75    38    77 1   
    76    39    78 1   
    77    40    41 1   
    78    40    79 1   
    79    40    80 1   
    80    41    42 ar  
    81    41    46 ar  
    82    42    43 ar  
    83    42    81 1   
    84    43    44 ar  
    85    43    82 1   
    86    44    45 ar  
    87    44    83 1   
    88    45    46 ar  
    89    45    84 1   
    90    46    85 1   
@<TRIPOS>SUBSTRUCTURE
     1 39V         1 TEMP              0 ****  ****    0 ROOT
