@<TRIPOS>MOLECULE
39V
   86    90     1     0     0
SMALL
No Charge or Current Charge


@<TRIPOS>ATOM
      1 C59          6.8000    -1.9910    -0.6580 c3         1 39V      -0.047900
      2 C58          6.1650    -1.3540     0.5690 ce         1 39V       0.032600
      3 C57          6.8160    -1.3860     1.8780 ca         1 39V      -0.085800
      4 C56          8.0270    -1.9680     2.2900 ca         1 39V      -0.076000
      5 C55          8.4010    -1.8370     3.6430 ca         1 39V      -0.118000
      6 C54          7.5700    -1.1390     4.5470 ca         1 39V      -0.101000
      7 C53          6.3590    -0.5680     4.1050 ca         1 39V      -0.099000
      8 C52          5.9960    -0.7040     2.7550 ca         1 39V      -0.077300
      9 C51          4.7320    -0.1660     2.0900 c5         1 39V      -0.004900
     10 C50          4.9790    -0.6760     0.6130 cf         1 39V      -0.217400
     11 C2           4.0230    -0.4220    -0.5070 c          1 39V       0.629300
     12 O3           4.1970    -0.8220    -1.6480 o          1 39V      -0.617100
     13 N1           2.9050     0.2990    -0.1600 ns         1 39V      -0.498900
     14 C11          1.8100     0.6760    -1.0780 c3         1 39V       0.038700
     15 C12          2.2190     1.8890    -1.9440 c3         1 39V      -0.113100
     16 C13          0.5050     0.9440    -0.2720 c          1 39V       0.601100
     17 O14          0.4890     1.0380     0.9510 o          1 39V      -0.620100
     18 N15         -0.6450     1.0170    -1.0290 ns         1 39V      -0.471900
     19 C16         -2.0140     1.1280    -0.4770 c3         1 39V       0.035700
     20 C26         -2.9220     0.0920    -1.1820 c          1 39V       0.589100
     21 O27         -2.7800    -0.2240    -2.3570 o          1 39V      -0.593100
     22 C17         -2.5850     2.5610    -0.6140 c3         1 39V      -0.009200
     23 C66         -1.7250     3.6160     0.0360 cc         1 39V      -0.148400
     24 C65         -1.7530     4.0230     1.3670 cd         1 39V      -0.150100
     25 C67         -0.6750     4.3730    -0.5850 ca         1 39V      -0.093800
     26 N69         -0.7490     4.9990     1.5870 na         1 39V      -0.219700
     27 C68         -0.1170     5.1750     0.3700 ca         1 39V      -0.049200
     28 C63         -0.2200     4.3780    -1.9120 ca         1 39V      -0.073000
     29 C60          0.9480     6.0360     0.0720 ca         1 39V      -0.126000
     30 C62          0.8510     5.2340    -2.2420 ca         1 39V      -0.134000
     31 C61          1.4360     6.0590    -1.2520 ca         1 39V      -0.091000
     32 N28         -3.8860    -0.4850    -0.3800 ns         1 39V      -0.490900
     33 C29         -4.6180    -1.7280    -0.7220 c3         1 39V       0.018700
     34 C31         -6.0860    -1.6740    -0.2100 c          1 39V       0.565100
     35 O32         -6.4460    -0.8770     0.6510 o          1 39V      -0.513100
     36 C37         -7.0760    -2.6690    -0.8440 c3         1 39V      -0.164700
     37 C38         -8.2160    -1.9250    -1.5880 c3         1 39V      -0.080100
     38 C39         -7.5890    -3.6470     0.2360 c3         1 39V       0.171600
     39 O40         -8.3240    -4.7100    -0.3790 oh         1 39V      -0.662000
     40 C30         -3.8700    -2.9850    -0.1940 c3         1 39V      -0.042100
     41 C41         -2.3710    -2.9710    -0.4900 ca         1 39V      -0.086300
     42 C42         -1.8900    -3.3620    -1.7550 ca         1 39V      -0.106000
     43 C43         -0.5130    -3.3120    -2.0380 ca         1 39V      -0.104000
     44 C44          0.3920    -2.8700    -1.0580 ca         1 39V      -0.104000
     45 C45         -0.0800    -2.4820     0.2070 ca         1 39V      -0.104000
     46 C46         -1.4560    -2.5340     0.4900 ca         1 39V      -0.106000
     47 H4           7.8160    -2.3510    -0.4700 hc         1 39V       0.054700
     48 H5           6.2080    -2.8460    -1.0040 hc         1 39V       0.054700
     49 H6           6.8660    -1.2740    -1.4840 hc         1 39V       0.054700
     50 H7           8.6660    -2.5080     1.5970 ha         1 39V       0.117000
     51 H8           9.3330    -2.2770     3.9910 ha         1 39V       0.112000
     52 H9           7.8650    -1.0430     5.5890 ha         1 39V       0.112000
     53 H10          5.7160    -0.0320     4.7990 ha         1 39V       0.116000
     54 H11          3.8210    -0.5890     2.5290 hc         1 39V       0.076700
     55 H12          4.6680     0.9270     2.1480 hc         1 39V       0.076700
     56 H1           2.8200     0.5690     0.8120 hn         1 39V       0.334500
     57 H13          1.6030    -0.1750    -1.7410 h1         1 39V       0.084700
     58 H14          3.1410     1.6790    -2.4990 hc         1 39V       0.051700
     59 H15          1.4370     2.1280    -2.6740 hc         1 39V       0.051700
     60 H16          2.3890     2.7720    -1.3170 hc         1 39V       0.051700
     61 H17         -0.5450     0.8880    -2.0300 hn         1 39V       0.329500
     62 H18         -1.9890     0.8640     0.5880 h1         1 39V       0.086700
     63 H2          -2.7160     2.7950    -1.6770 hc         1 39V       0.060700
     64 H3          -3.5890     2.5870    -0.1720 hc         1 39V       0.060700
     65 H24         -2.3990     3.6800     2.1710 h4         1 39V       0.211000
     66 H34         -0.5330     5.4680     2.4610 hn         1 39V       0.352000
     67 H19         -0.6750     3.7390    -2.6660 ha         1 39V       0.113000
     68 H23          1.3880     6.6700     0.8390 ha         1 39V       0.114000
     69 H20          1.2300     5.2590    -3.2610 ha         1 39V       0.115000
     70 H22          2.2630     6.7160    -1.5130 ha         1 39V       0.113000
     71 H25         -3.9660    -0.1320     0.5670 hn         1 39V       0.322500
     72 H26         -4.6770    -1.8020    -1.8160 h1         1 39V       0.086700
     73 H37         -7.8050    -1.2390    -2.3390 hc         1 39V       0.050367
     74 H38         -8.8760    -2.6330    -2.1050 hc         1 39V       0.050367
     75 H39         -8.8260    -1.3400    -0.8880 hc         1 39V       0.050367
     76 H40         -6.7320    -4.0560     0.7880 h1         1 39V       0.028200
     77 H41         -8.2220    -3.1050     0.9520 h1         1 39V       0.028200
     78 H42         -8.6450    -5.2930     0.3450 ho         1 39V       0.446000
     79 H27         -4.0280    -3.0590     0.8890 hc         1 39V       0.060200
     80 H28         -4.3260    -3.8860    -0.6240 hc         1 39V       0.060200
     81 H33         -2.5850    -3.6950    -2.5230 ha         1 39V       0.109500
     82 H32         -0.1490    -3.6110    -3.0180 ha         1 39V       0.114500
     83 H31          1.4560    -2.8280    -1.2780 ha         1 39V       0.115000
     84 H30          0.6180    -2.1380     0.9660 ha         1 39V       0.114500
     85 H29         -1.8120    -2.2220     1.4690 ha         1 39V       0.109500
     86 H36         -6.5260    -3.2580    -1.5880 hc         1 39V       0.067700
@<TRIPOS>BOND
     1     1     2 1   
     2     1    47 1   
     3     1    48 1   
     4     1    49 1   
     5     2     3 1   
     6     2    10 2   
     7     3     4 ar  
     8     3     8 ar  
     9     4     5 ar  
    10     4    50 1   
    11     5     6 ar  
    12     5    51 1   
    13     6     7 ar  
    14     6    52 1   
    15     7     8 ar  
    16     7    53 1   
    17     8     9 1   
    18     9    10 1   
    19     9    54 1   
    20     9    55 1   
    21    10    11 1   
    22    11    12 2   
    23    11    13 1   
    24    13    14 1   
    25    13    56 1   
    26    14    15 1   
    27    14    16 1   
    28    14    57 1   
    29    15    58 1   
    30    15    59 1   
    31    15    60 1   
    32    16    17 2   
    33    16    18 1   
    34    18    19 1   
    35    18    61 1   
    36    19    20 1   
    37    19    22 1   
    38    19    62 1   
    39    20    21 2   
    40    20    32 1   
    41    22    23 1   
    42    22    63 1   
    43    22    64 1   
    44    23    24 2   
    45    23    25 1   
    46    24    26 1   
    47    24    65 1   
    48    25    27 ar  
    49    25    28 ar  
    50    26    27 1   
    51    26    66 1   
    52    27    29 ar  
    53    28    30 ar  
    54    28    67 1   
    55    29    31 ar  
    56    29    68 1   
    57    30    31 ar  
    58    30    69 1   
    59    31    70 1   
    60    32    33 1   
    61    32    71 1   
    62    33    34 1   
    63    33    40 1   
    64    33    72 1   
    65    34    35 2   
    66    34    36 1   
    67    36    37 1   
    68    36    38 1   
    69    36    86 1   
    70    37    73 1   
    71    37    74 1   
    72    37    75 1   
    73    38    39 1   
    74    38    76 1   
    75    38    77 1   
    76    39    78 1   
    77    40    41 1   
    78    40    79 1   
    79    40    80 1   
    80    41    42 ar  
    81    41    46 ar  
    82    42    43 ar  
    83    42    81 1   
    84    43    44 ar  
    85    43    82 1   
    86    44    45 ar  
    87    44    83 1   
    88    45    46 ar  
    89    45    84 1   
    90    46    85 1   
@<TRIPOS>SUBSTRUCTURE
     1 39V         1 TEMP              0 ****  ****    0 ROOT
