@<TRIPOS>MOLECULE
39W
   98   104     1     0     0
SMALL
bcc


@<TRIPOS>ATOM
      1 C1           6.6630     1.1980    -0.9400 ca         1 39W       0.046600
      2 C2           5.4650     0.7010    -0.4040 ca         1 39W       0.418600
      3 C3           6.9010     2.5450    -1.1070 ca         1 39W       0.112100
      4 C4           4.4700     1.6360    -0.0260 ca         1 39W      -0.181300
      5 C5           5.8940     3.4540    -0.7230 ca         1 39W      -0.190000
      6 C6           4.7090     3.0100    -0.1960 ca         1 39W      -0.066000
      7 C8           4.1980    -1.0830     0.2110 ca         1 39W       0.435300
      8 C12          8.3570     4.2640    -1.8430 c3         1 39W       0.124700
      9 O14          2.3480     2.0040     0.8620 os         1 39W      -0.308900
     10 C15          4.0720    -2.5450     0.3270 cc         1 39W       0.363400
     11 C18          4.6550    -4.6740     0.2510 cd         1 39W       0.362600
     12 C19          3.3590    -4.8310     0.6460 cc         1 39W      -0.201400
     13 C21          6.7890    -5.6580     1.0620 c3         1 39W      -0.086600
     14 C23          1.0820     1.5890     1.3420 c5         1 39W       0.141100
     15 C24          0.3480     2.7960     1.9180 c5         1 39W      -0.085400
     16 C32         -2.9520     4.1600     3.1820 c3         1 39W       0.084300
     17 C33         -3.1380     5.6710     1.2210 c3         1 39W       0.099000
     18 C34         -4.6380     5.7390     0.9390 c3         1 39W      -0.089400
     19 C35         -5.1590     4.9420    -0.2590 c3         1 39W      -0.065400
     20 C36         -5.4280     3.4650     0.0350 c3         1 39W      -0.053200
     21 C37         -6.1050     2.7510    -1.0950 c2         1 39W      -0.132200
     22 C38         -5.5640     1.8430    -1.9090 c2         1 39W      -0.142200
     23 O50         -6.2540    -2.6820     0.8640 o          1 39W      -0.597800
     24 S47         -4.9430    -3.1540     0.4600 s6         1 39W       1.290600
     25 O49         -4.0400    -3.6870     1.4660 o          1 39W      -0.597800
     26 C48         -5.0960    -4.3300    -0.8490 cx         1 39W      -0.290200
     27 C53         -6.2280    -5.3060    -0.6760 cx         1 39W      -0.068400
     28 C52         -6.3110    -4.2440    -1.7200 cx         1 39W      -0.068400
     29 C51         -3.7730    -4.7890    -1.4040 c3         1 39W      -0.041100
     30 N45         -4.0750    -1.8840    -0.2060 ns         1 39W      -0.638300
     31 O46         -5.6570    -1.0650    -1.6120 o          1 39W      -0.557100
     32 C41         -3.5880     0.1030    -1.4590 cx         1 39W      -0.064600
     33 C43         -3.5430     0.5420    -2.8980 cx         1 39W      -0.102400
     34 C42         -4.1340     1.4660    -1.8970 cx         1 39W      -0.036500
     35 N31         -2.6340     4.4260     1.7890 n          1 39W      -0.456800
     36 C28         -1.8740     3.6030     1.0520 c          1 39W       0.657100
     37 O30         -1.6830     3.7550    -0.1490 o          1 39W      -0.620100
     38 C25         -1.1440     2.4480     1.7580 c5         1 39W       0.043700
     39 N40         -2.3600     0.1180    -0.7320 ns         1 39W      -0.550900
     40 C29         -2.3360     0.8490     0.4320 c          1 39W       0.782100
     41 O39         -3.3640     1.0970     1.0440 o          1 39W      -0.605100
     42 N27         -1.1340     1.2910     0.8750 n          1 39W      -0.478800
     43 C26          0.1460     1.0870     0.2430 c5         1 39W       0.068000
     44 C10          3.2630     1.1040     0.5080 ca         1 39W       0.206100
     45 O11          8.0820     2.8890    -1.6310 os         1 39W      -0.296900
     46 F13          7.6070     0.3250    -1.3060 f          1 39W      -0.104900
     47 C9           3.1300    -0.2560     0.6250 ca         1 39W      -0.363300
     48 N7           5.3210    -0.6360    -0.2830 nb         1 39W      -0.625000
     49 S17          2.5980    -3.3120     0.8040 ss         1 39W      -0.180300
     50 N16          5.0340    -3.3760     0.0750 nd         1 39W      -0.591000
     51 C20          5.6650    -5.7630     0.0290 c3         1 39W      -0.089000
     52 C22          5.0430    -7.1520     0.0420 c3         1 39W      -0.086600
     53 H1           6.0480     4.5180    -0.8420 ha         1 39W       0.141000
     54 H2           3.9580     3.7330     0.0870 ha         1 39W       0.149000
     55 H3           7.6460     4.7170    -2.5380 h1         1 39W       0.045033
     56 H4           8.3530     4.8290    -0.9070 h1         1 39W       0.045033
     57 H5           9.3510     4.3110    -2.2770 h1         1 39W       0.045033
     58 H7           2.8210    -5.7440     0.8500 h4         1 39W       0.182000
     59 H9           6.4070    -5.8450     2.0670 hc         1 39W       0.038033
     60 H10          7.5650    -6.3950     0.8540 hc         1 39W       0.038033
     61 H11          7.2520    -4.6710     1.0530 hc         1 39W       0.038033
     62 H12          1.2010     0.8210     2.1120 h1         1 39W       0.067700
     63 H13          0.6080     2.9820     2.9580 hc         1 39W       0.076200
     64 H14          0.6160     3.6830     1.3420 hc         1 39W       0.076200
     65 H15         -3.4720     3.2100     3.3000 h1         1 39W       0.045367
     66 H16         -2.0640     4.1600     3.8160 h1         1 39W       0.045367
     67 H17         -3.6130     4.9420     3.5460 h1         1 39W       0.045367
     68 H18         -2.5880     5.8770     0.3050 h1         1 39W       0.055200
     69 H19         -2.8850     6.4660     1.9270 h1         1 39W       0.055200
     70 H20         -5.2040     5.4700     1.8370 hc         1 39W       0.042200
     71 H21         -4.8510     6.7980     0.7660 hc         1 39W       0.042200
     72 H22         -6.0900     5.4070    -0.5960 hc         1 39W       0.042200
     73 H23         -4.4580     5.0290    -1.0950 hc         1 39W       0.042200
     74 H24         -4.5100     2.9570     0.3120 hc         1 39W       0.057700
     75 H25         -6.0840     3.4070     0.9110 hc         1 39W       0.057700
     76 H26         -7.1500     3.0030    -1.2550 ha         1 39W       0.117000
     77 H27         -6.1880     1.3900    -2.6710 ha         1 39W       0.135000
     78 H28         -6.0120    -6.3250    -0.9690 hc         1 39W       0.091200
     79 H29         -6.8760    -5.2180     0.1860 hc         1 39W       0.091200
     80 H30         -7.0090    -3.4340    -1.5650 hc         1 39W       0.091200
     81 H31         -6.1580    -4.5130    -2.7570 hc         1 39W       0.091200
     82 H32         -3.1510    -5.2490    -0.6380 hc         1 39W       0.047367
     83 H33         -3.9540    -5.5340    -2.1770 hc         1 39W       0.047367
     84 H34         -3.2200    -3.9690    -1.8620 hc         1 39W       0.047367
     85 H35         -3.1210    -1.7840     0.1220 hn         1 39W       0.357500
     86 H36         -2.5650     0.7680    -3.3070 hc         1 39W       0.085700
     87 H37         -4.2100     0.0340    -3.5830 hc         1 39W       0.085700
     88 H38         -3.4720     2.2590    -1.5670 hc         1 39W       0.100700
     89 H39         -1.5860     2.1820     2.7150 h1         1 39W       0.093700
     90 H40         -1.5160     0.0190    -1.2750 hn         1 39W       0.313500
     91 H41          0.2750     1.6810    -0.6690 h1         1 39W       0.064200
     92 H42          0.3030     0.0350     0.0030 h1         1 39W       0.064200
     93 H43          2.2350    -0.6990     1.0380 ha         1 39W       0.148000
     94 H44          6.1010    -5.5910    -0.9610 hc         1 39W       0.069700
     95 H45          4.2570    -7.2570    -0.7080 hc         1 39W       0.038033
     96 H46          5.8040    -7.9040    -0.1700 hc         1 39W       0.038033
     97 H47          4.6140    -7.3890     1.0180 hc         1 39W       0.038033
     98 C44         -4.5580    -0.9770    -1.1160 c          1 39W       0.752100
@<TRIPOS>BOND
     1     1     2 ar  
     2     1     3 ar  
     3     1    46 1   
     4     2     4 ar  
     5     2    48 ar  
     6     3     5 ar  
     7     3    45 1   
     8     4     6 ar  
     9     4    44 ar  
    10     5     6 ar  
    11     5    53 1   
    12     6    54 1   
    13     7    10 1   
    14     7    47 ar  
    15     7    48 ar  
    16     8    45 1   
    17     8    55 1   
    18     8    56 1   
    19     8    57 1   
    20     9    14 1   
    21     9    44 1   
    22    10    49 1   
    23    10    50 2   
    24    11    12 2   
    25    11    50 1   
    26    11    51 1   
    27    12    49 1   
    28    12    58 1   
    29    13    51 1   
    30    13    59 1   
    31    13    60 1   
    32    13    61 1   
    33    14    15 1   
    34    14    43 1   
    35    14    62 1   
    36    15    38 1   
    37    15    63 1   
    38    15    64 1   
    39    16    35 1   
    40    16    65 1   
    41    16    66 1   
    42    16    67 1   
    43    17    18 1   
    44    17    35 1   
    45    17    68 1   
    46    17    69 1   
    47    18    19 1   
    48    18    70 1   
    49    18    71 1   
    50    19    20 1   
    51    19    72 1   
    52    19    73 1   
    53    20    21 1   
    54    20    74 1   
    55    20    75 1   
    56    21    22 2   
    57    21    76 1   
    58    22    34 1   
    59    22    77 1   
    60    23    24 2   
    61    24    25 2   
    62    24    26 1   
    63    24    30 1   
    64    26    27 1   
    65    26    28 1   
    66    26    29 1   
    67    27    28 1   
    68    27    78 1   
    69    27    79 1   
    70    28    80 1   
    71    28    81 1   
    72    29    82 1   
    73    29    83 1   
    74    29    84 1   
    75    30    85 1   
    76    30    98 1   
    77    31    98 2   
    78    32    33 1   
    79    32    34 1   
    80    32    39 1   
    81    32    98 1   
    82    33    34 1   
    83    33    86 1   
    84    33    87 1   
    85    34    88 1   
    86    35    36 1   
    87    36    37 2   
    88    36    38 1   
    89    38    42 1   
    90    38    89 1   
    91    39    40 1   
    92    39    90 1   
    93    40    41 2   
    94    40    42 1   
    95    42    43 1   
    96    43    91 1   
    97    43    92 1   
    98    44    47 ar  
    99    47    93 1   
   100    51    52 1   
   101    51    94 1   
   102    52    95 1   
   103    52    96 1   
   104    52    97 1   
@<TRIPOS>SUBSTRUCTURE
     1 39W         1 TEMP              0 ****  ****    0 ROOT
