@<TRIPOS>MOLECULE
39W
   98   104     1     0     0
SMALL
No Charge or Current Charge


@<TRIPOS>ATOM
      1 C1           5.2270     0.4150    -2.3930 ca         1 39W       0.147000
      2 C2           4.6420     0.0010    -1.1700 ca         1 39W       0.288000
      3 C3           5.0680     1.7320    -2.8710 ca         1 39W       0.112100
      4 C4           3.8880     0.9430    -0.4300 ca         1 39W      -0.116000
      5 C5           4.3150     2.6560    -2.1180 ca         1 39W      -0.172000
      6 C6           3.7300     2.2630    -0.9060 ca         1 39W      -0.048000
      7 C8           4.2500    -1.6690     0.4480 ca         1 39W       0.370000
      8 C12          5.5540     3.3970    -4.6380 c3         1 39W       0.147900
      9 O14          2.5660     1.4380     1.5300 os         1 39W      -0.332100
     10 C15          4.4710    -3.0610     0.9140 cc         1 39W       0.363400
     11 C18          5.5130    -4.9920     1.3320 cd         1 39W       0.297300
     12 C19          4.2950    -5.2640     1.9090 cc         1 39W      -0.263000
     13 C21          7.2140    -6.2690     2.6970 c3         1 39W      -0.086600
     14 C23          1.2040     0.9580     1.6960 c5         1 39W       0.164300
     15 C24          0.4270     2.0340     2.5000 c5         1 39W      -0.085400
     16 C32         -3.0990     2.7170     3.9680 c3         1 39W       0.084300
     17 C33         -3.4690     4.8660     2.6980 c3         1 39W       0.099000
     18 C34         -4.9670     4.7940     2.2910 c3         1 39W      -0.089400
     19 C35         -5.2750     4.7600     0.7680 c3         1 39W      -0.065400
     20 C36         -4.9840     3.4150     0.0720 c3         1 39W      -0.053200
     21 C37         -5.4040     3.3880    -1.3930 c2         1 39W      -0.182200
     22 C38         -4.6460     3.0170    -2.4430 c2         1 39W      -0.192200
     23 O50         -6.8840    -1.2380    -2.4600 o          1 39W      -0.527000
     24 S47         -6.0590    -1.1860    -1.2470 s6         1 39W       1.259800
     25 O49         -6.6750    -0.8960     0.0510 o          1 39W      -0.527000
     26 C48         -5.1330    -2.8120    -1.0950 cx         1 39W      -0.401000
     27 C53         -5.8910    -4.1010    -1.3580 cx         1 39W      -0.068400
     28 C52         -4.8510    -3.6230    -2.3470 cx         1 39W      -0.068400
     29 C51         -4.0870    -2.7610     0.0250 c3         1 39W      -0.041100
     30 N45         -4.8520    -0.0730    -1.4760 ns         1 39W      -0.571300
     31 O46         -4.1580    -0.5680    -3.5750 o          1 39W      -0.557100
     32 C41         -2.8960     1.0780    -2.3170 cx         1 39W      -0.064600
     33 C43         -2.5110     1.9180    -3.5220 cx         1 39W      -0.102400
     34 C42         -3.2260     2.5620    -2.3620 cx         1 39W      -0.036500
     35 N31         -2.7610     3.5590     2.7960 n          1 39W      -0.389800
     36 C28         -1.7500     3.2130     1.8520 c          1 39W       0.590100
     37 O30         -1.4500     3.9750     0.9380 o          1 39W      -0.620100
     38 C25         -1.0640     1.8030     2.0780 c5         1 39W       0.043700
     39 N40         -1.8560     0.7580    -1.3480 ns         1 39W      -0.483900
     40 C29         -2.0570     0.8500     0.0100 c          1 39W       0.648100
     41 O39         -3.1700     0.8270     0.5080 o          1 39W      -0.605100
     42 N27         -0.9240     1.0540     0.8010 n          1 39W      -0.411800
     43 C26          0.4680     0.9830     0.3270 c5         1 39W       0.068000
     44 C10          3.2960     0.5370     0.7790 ca         1 39W       0.206100
     45 O11          5.6630     2.0780    -4.0730 os         1 39W      -0.320100
     46 F13          5.9560    -0.4670    -3.1250 f          1 39W      -0.140000
     47 C9           3.4970    -0.7740     1.2280 ca         1 39W      -0.280000
     48 N7           4.8070    -1.2720    -0.7260 nb         1 39W      -0.625000
     49 S17          3.2050    -3.9180     1.7640 ss         1 39W      -0.035400
     50 N16          5.6180    -3.7300     0.7680 nd         1 39W      -0.591000
     51 C20          6.6920    -5.9370     1.2800 c3         1 39W      -0.089000
     52 C22          6.3590    -7.2170     0.4810 c3         1 39W      -0.086600
     53 H1           4.1720     3.6790    -2.4540 ha         1 39W       0.123000
     54 H2           3.1530     2.9920    -0.3400 ha         1 39W       0.131000
     55 H3           4.5050     3.6520    -4.8330 h1         1 39W       0.045033
     56 H4           5.9810     4.1480    -3.9620 h1         1 39W       0.045033
     57 H5           6.0980     3.4480    -5.5890 h1         1 39W       0.045033
     58 H7           3.9740    -6.1680     2.4080 h4         1 39W       0.164000
     59 H9           6.4530    -6.8000     3.2810 hc         1 39W       0.038033
     60 H10          8.1090    -6.9020     2.6420 hc         1 39W       0.038033
     61 H11          7.4810    -5.3510     3.2340 hc         1 39W       0.038033
     62 H12          1.1610    -0.0240     2.1870 h1         1 39W       0.067700
     63 H13          0.5710     1.9300     3.5810 hc         1 39W       0.076200
     64 H14          0.7730     3.0390     2.2270 hc         1 39W       0.076200
     65 H15         -3.5610     1.7800     3.6310 h1         1 39W       0.045367
     66 H16         -2.1940     2.4970     4.5480 h1         1 39W       0.045367
     67 H17         -3.8100     3.2380     4.6220 h1         1 39W       0.045367
     68 H18         -2.9440     5.5470     2.0170 h1         1 39W       0.055200
     69 H19         -3.4170     5.3340     3.6900 h1         1 39W       0.055200
     70 H20         -5.4540     3.9470     2.7900 hc         1 39W       0.042200
     71 H21         -5.4490     5.6940     2.6920 hc         1 39W       0.042200
     72 H22         -6.3380     4.9940     0.6310 hc         1 39W       0.042200
     73 H23         -4.7140     5.5580     0.2650 hc         1 39W       0.042200
     74 H24         -3.9160     3.2150     0.1670 hc         1 39W       0.057700
     75 H25         -5.5020     2.6150     0.6150 hc         1 39W       0.057700
     76 H26         -6.4350     3.7050    -1.5630 ha         1 39W       0.167000
     77 H27         -5.0700     3.0490    -3.4490 ha         1 39W       0.185000
     78 H28         -5.6500    -4.9740    -0.7550 hc         1 39W       0.091200
     79 H29         -6.9360    -4.0390    -1.6580 hc         1 39W       0.091200
     80 H30         -5.2030    -3.2470    -3.3060 hc         1 39W       0.091200
     81 H31         -3.9160    -4.1770    -2.4020 hc         1 39W       0.091200
     82 H32         -4.5420    -2.4900     0.9860 hc         1 39W       0.047367
     83 H33         -3.5970    -3.7330     0.1590 hc         1 39W       0.047367
     84 H34         -3.3000    -2.0300    -0.1950 hc         1 39W       0.047367
     85 H35         -4.5920     0.3910    -0.6180 hn         1 39W       0.357500
     86 H36         -1.4600     2.1560    -3.6620 hc         1 39W       0.085700
     87 H37         -3.0670     1.7830    -4.4460 hc         1 39W       0.085700
     88 H38         -2.6080     3.2220    -1.7560 hc         1 39W       0.100700
     89 H39         -1.5980     1.1800     2.8020 h1         1 39W       0.093700
     90 H40         -0.8910     0.7540    -1.6510 hn         1 39W       0.313500
     91 H41          0.7320     1.8670    -0.2700 h1         1 39W       0.064200
     92 H42          0.6640     0.0740    -0.2570 h1         1 39W       0.064200
     93 H43          3.0950    -1.0930     2.1840 ha         1 39W       0.130000
     94 H44          7.5130    -5.4370     0.7500 hc         1 39W       0.069700
     95 H45          6.0260    -6.9610    -0.5330 hc         1 39W       0.038033
     96 H46          7.2420    -7.8620     0.3950 hc         1 39W       0.038033
     97 H47          5.5620    -7.7900     0.9700 hc         1 39W       0.038033
     98 C44         -4.0280     0.0630    -2.5360 c          1 39W       0.685100
@<TRIPOS>BOND
     1     1     2 ar  
     2     1     3 ar  
     3     1    46 1   
     4     2     4 ar  
     5     2    48 ar  
     6     3     5 ar  
     7     3    45 1   
     8     4     6 ar  
     9     4    44 ar  
    10     5     6 ar  
    11     5    53 1   
    12     6    54 1   
    13     7    10 1   
    14     7    47 ar  
    15     7    48 ar  
    16     8    45 1   
    17     8    55 1   
    18     8    56 1   
    19     8    57 1   
    20     9    14 1   
    21     9    44 1   
    22    10    49 1   
    23    10    50 2   
    24    11    12 2   
    25    11    50 1   
    26    11    51 1   
    27    12    49 1   
    28    12    58 1   
    29    13    51 1   
    30    13    59 1   
    31    13    60 1   
    32    13    61 1   
    33    14    15 1   
    34    14    43 1   
    35    14    62 1   
    36    15    38 1   
    37    15    63 1   
    38    15    64 1   
    39    16    35 1   
    40    16    65 1   
    41    16    66 1   
    42    16    67 1   
    43    17    18 1   
    44    17    35 1   
    45    17    68 1   
    46    17    69 1   
    47    18    19 1   
    48    18    70 1   
    49    18    71 1   
    50    19    20 1   
    51    19    72 1   
    52    19    73 1   
    53    20    21 1   
    54    20    74 1   
    55    20    75 1   
    56    21    22 2   
    57    21    76 1   
    58    22    34 1   
    59    22    77 1   
    60    23    24 2   
    61    24    25 2   
    62    24    26 1   
    63    24    30 1   
    64    26    27 1   
    65    26    28 1   
    66    26    29 1   
    67    27    28 1   
    68    27    78 1   
    69    27    79 1   
    70    28    80 1   
    71    28    81 1   
    72    29    82 1   
    73    29    83 1   
    74    29    84 1   
    75    30    85 1   
    76    30    98 1   
    77    31    98 2   
    78    32    33 1   
    79    32    34 1   
    80    32    39 1   
    81    32    98 1   
    82    33    34 1   
    83    33    86 1   
    84    33    87 1   
    85    34    88 1   
    86    35    36 1   
    87    36    37 2   
    88    36    38 1   
    89    38    42 1   
    90    38    89 1   
    91    39    40 1   
    92    39    90 1   
    93    40    41 2   
    94    40    42 1   
    95    42    43 1   
    96    43    91 1   
    97    43    92 1   
    98    44    47 ar  
    99    47    93 1   
   100    51    52 1   
   101    51    94 1   
   102    52    95 1   
   103    52    96 1   
   104    52    97 1   
@<TRIPOS>SUBSTRUCTURE
     1 39W         1 TEMP              0 ****  ****    0 ROOT
