@<TRIPOS>MOLECULE
39X
   43    46     1     0     0
SMALL
No Charge or Current Charge


@<TRIPOS>ATOM
      1 O3          -1.0300    -5.3470     0.0930 o          1 39X      -0.710500
      2 C21         -0.7110    -4.4420     0.8510 c          1 39X       0.719000
      3 O2          -0.1190    -4.6240     1.9070 o          1 39X      -0.710500
      4 C20         -0.9800    -2.9750     0.3970 c3         1 39X      -0.040300
      5 C12         -2.1560    -2.3470     1.1900 c3         1 39X      -0.108700
      6 C13         -2.5250    -0.9540     0.7620 cc         1 39X       0.456800
      7 N3          -2.3590     0.1520     1.5180 nd         1 39X      -0.607100
      8 C15         -2.8490     1.1800     0.7180 ca         1 39X       0.061400
      9 C19         -2.9100     2.5520     1.0110 ca         1 39X      -0.034000
     10 C18         -3.4550     3.4200     0.0370 ca         1 39X      -0.182000
     11 C17         -3.9220     2.9060    -1.1940 ca         1 39X       0.164000
     12 F1          -4.4390     3.7460    -2.1160 f          1 39X      -0.194000
     13 C16         -3.8530     1.5260    -1.4680 ca         1 39X      -0.155000
     14 C14         -3.3070     0.7030    -0.4770 ca         1 39X      -0.064200
     15 N2          -3.1140    -0.6430    -0.4600 na         1 39X      -0.307600
     16 N1           0.2550    -2.1620     0.5190 ns         1 39X      -0.453900
     17 C1           0.6610    -1.1800    -0.3640 c          1 39X       0.613700
     18 O1           0.0300    -0.9450    -1.3870 o          1 39X      -0.627100
     19 C2           1.9250    -0.4230    -0.0050 ca         1 39X      -0.126600
     20 C7           2.6620    -0.6940     1.1740 ca         1 39X      -0.078000
     21 C6           3.8280     0.0320     1.4720 ca         1 39X      -0.122000
     22 C5           4.2790     1.0410     0.6040 ca         1 39X      -0.029000
     23 C11          5.4460     1.7680     0.9030 ca         1 39X      -0.103000
     24 C10          5.8910     2.7760     0.0310 ca         1 39X      -0.116000
     25 C9           5.1710     3.0590    -1.1420 ca         1 39X      -0.127000
     26 C8           4.0040     2.3350    -1.4440 ca         1 39X      -0.085000
     27 C4           3.5550     1.3240    -0.5730 ca         1 39X      -0.048000
     28 C3           2.3880     0.5950    -0.8710 ca         1 39X      -0.051000
     29 H15         -1.2620    -3.0220    -0.6630 h1         1 39X       0.059700
     30 H9          -3.0370    -2.9910     1.0870 hc         1 39X       0.079200
     31 H10         -1.9060    -2.3430     2.2570 hc         1 39X       0.079200
     32 H14         -2.5470     2.9330     1.9620 ha         1 39X       0.123000
     33 H13         -3.5150     4.4870     0.2340 ha         1 39X       0.120000
     34 H12         -4.2100     1.1220    -2.4120 ha         1 39X       0.130000
     35 H11         -3.3250    -1.3010    -1.1980 hn         1 39X       0.364000
     36 H1           0.8460    -2.3260     1.3240 hn         1 39X       0.311500
     37 H4           2.3480    -1.4650     1.8730 ha         1 39X       0.132000
     38 H3           4.3800    -0.1910     2.3820 ha         1 39X       0.107000
     39 H8           6.0090     1.5550     1.8090 ha         1 39X       0.105000
     40 H7           6.7930     3.3380     0.2640 ha         1 39X       0.101000
     41 H6           5.5150     3.8390    -1.8170 ha         1 39X       0.103000
     42 H5           3.4530     2.5600    -2.3540 ha         1 39X       0.113000
     43 H2           1.8380     0.8240    -1.7820 ha         1 39X       0.136000
@<TRIPOS>BOND
     1     1     2 1   
     2     2     3 1   
     3     2     4 1   
     4     4     5 1   
     5     4    16 1   
     6     4    29 1   
     7     5     6 1   
     8     5    30 1   
     9     5    31 1   
    10     6     7 2   
    11     6    15 1   
    12     7     8 1   
    13     8     9 ar  
    14     8    14 ar  
    15     9    10 ar  
    16     9    32 1   
    17    10    11 ar  
    18    10    33 1   
    19    11    12 1   
    20    11    13 ar  
    21    13    14 ar  
    22    13    34 1   
    23    14    15 1   
    24    15    35 1   
    25    16    17 1   
    26    16    36 1   
    27    17    18 2   
    28    17    19 1   
    29    19    20 ar  
    30    19    28 ar  
    31    20    21 ar  
    32    20    37 1   
    33    21    22 ar  
    34    21    38 1   
    35    22    23 ar  
    36    22    27 ar  
    37    23    24 ar  
    38    23    39 1   
    39    24    25 ar  
    40    24    40 1   
    41    25    26 ar  
    42    25    41 1   
    43    26    27 ar  
    44    26    42 1   
    45    27    28 ar  
    46    28    43 1   
@<TRIPOS>SUBSTRUCTURE
     1 39X         1 TEMP              0 ****  ****    0 ROOT
