@<TRIPOS>MOLECULE
39X
   43    46     1     0     0
SMALL
bcc


@<TRIPOS>ATOM
      1 O3          -1.3330    -5.1960     0.0890 o          1 39X      -0.815800
      2 C21         -0.4260    -4.3420     0.1100 c          1 39X       0.929600
      3 O2           0.7950    -4.5310     0.2130 o          1 39X      -0.815800
      4 C20         -0.9090    -2.8730    -0.0380 c3         1 39X      -0.040300
      5 C12         -2.0920    -2.5730     0.8970 c3         1 39X      -0.108700
      6 C13         -2.5100    -1.1500     0.7950 cc         1 39X       0.456800
      7 N3          -2.2180    -0.2110     1.6530 nd         1 39X      -0.607100
      8 C15         -2.7300     0.9480     1.1150 ca         1 39X       0.061400
      9 C19         -2.7060     2.2540     1.5960 ca         1 39X      -0.052000
     10 C18         -3.3050     3.2460     0.8390 ca         1 39X      -0.200000
     11 C17         -3.9140     2.9230    -0.3740 ca         1 39X       0.128900
     12 F1          -4.4840     3.9200    -1.0770 f          1 39X      -0.158900
     13 C16         -3.9630     1.6470    -0.8910 ca         1 39X      -0.173000
     14 C14         -3.3520     0.6700    -0.1140 ca         1 39X      -0.064200
     15 N2          -3.1910    -0.6750    -0.2840 na         1 39X      -0.257300
     16 N1           0.1270    -1.9010     0.1930 ns         1 39X      -0.520900
     17 C1           0.8850    -1.3650    -0.7710 c          1 39X       0.680700
     18 O1           0.8050    -1.6780    -1.9530 o          1 39X      -0.627100
     19 C2           1.8460    -0.3130    -0.3140 ca         1 39X      -0.126600
     20 C7           1.5600     0.5290     0.7890 ca         1 39X      -0.096000
     21 C6           2.4430     1.5000     1.1690 ca         1 39X      -0.140000
     22 C5           3.6640     1.6800     0.4780 ca         1 39X      -0.029000
     23 C11          4.6030     2.6680     0.8540 ca         1 39X      -0.121000
     24 C10          5.7740     2.8150     0.1610 ca         1 39X      -0.134000
     25 C9           6.0600     1.9830    -0.9430 ca         1 39X      -0.145000
     26 C8           5.1690     1.0210    -1.3310 ca         1 39X      -0.103000
     27 C4           3.9510     0.8450    -0.6320 ca         1 39X      -0.048000
     28 C3           3.0120    -0.1380    -1.0140 ca         1 39X      -0.069000
     29 H15         -1.2430    -2.7500    -1.0720 h1         1 39X       0.059700
     30 H9          -2.9180    -3.2380     0.6470 hc         1 39X       0.079200
     31 H10         -1.8130    -2.7720     1.9330 hc         1 39X       0.079200
     32 H14         -2.2320     2.4940     2.5390 ha         1 39X       0.141000
     33 H13         -3.3060     4.2740     1.1770 ha         1 39X       0.138000
     34 H12         -4.4440     1.4310    -1.8360 ha         1 39X       0.148000
     35 H11         -3.5330    -1.2230    -1.0580 hn         1 39X       0.313700
     36 H1           0.3640    -1.7060     1.1520 hn         1 39X       0.311500
     37 H4           0.6200     0.4330     1.3200 ha         1 39X       0.150000
     38 H3           2.2100     2.1490     2.0040 ha         1 39X       0.125000
     39 H8           4.3860     3.3070     1.7020 ha         1 39X       0.123000
     40 H7           6.4890     3.5710     0.4580 ha         1 39X       0.119000
     41 H6           6.9910     2.1100    -1.4810 ha         1 39X       0.121000
     42 H5           5.3850     0.3810    -2.1790 ha         1 39X       0.131000
     43 H2           3.2310    -0.7660    -1.8690 ha         1 39X       0.154000
@<TRIPOS>BOND
     1     1     2 1   
     2     2     3 1   
     3     2     4 1   
     4     4     5 1   
     5     4    16 1   
     6     4    29 1   
     7     5     6 1   
     8     5    30 1   
     9     5    31 1   
    10     6     7 2   
    11     6    15 1   
    12     7     8 1   
    13     8     9 ar  
    14     8    14 ar  
    15     9    10 ar  
    16     9    32 1   
    17    10    11 ar  
    18    10    33 1   
    19    11    12 1   
    20    11    13 ar  
    21    13    14 ar  
    22    13    34 1   
    23    14    15 1   
    24    15    35 1   
    25    16    17 1   
    26    16    36 1   
    27    17    18 2   
    28    17    19 1   
    29    19    20 ar  
    30    19    28 ar  
    31    20    21 ar  
    32    20    37 1   
    33    21    22 ar  
    34    21    38 1   
    35    22    23 ar  
    36    22    27 ar  
    37    23    24 ar  
    38    23    39 1   
    39    24    25 ar  
    40    24    40 1   
    41    25    26 ar  
    42    25    41 1   
    43    26    27 ar  
    44    26    42 1   
    45    27    28 ar  
    46    28    43 1   
@<TRIPOS>SUBSTRUCTURE
     1 39X         1 TEMP              0 ****  ****    0 ROOT
