@<TRIPOS>MOLECULE
39Y
   23    22     1     0     0
SMALL
bcc


@<TRIPOS>ATOM
      1 O           -3.1250    -1.1870    -0.0660 o          1 39Y      -0.838300
      2 C8          -2.9660     0.0360     0.1310 c          1 39Y       0.908800
      3 C9          -1.6040     0.6270    -0.1480 ce         1 39Y      -0.200200
      4 C10         -0.5590    -0.0790    -0.5750 c2         1 39Y      -0.227200
      5 C11          0.7990     0.4810    -0.8480 c3         1 39Y      -0.028200
      6 C12          1.8980    -0.0570     0.0830 c3         1 39Y      -0.058700
      7 C13          2.0970    -1.5580    -0.0930 c3         1 39Y      -0.080100
      8 C14          3.1950     0.7200    -0.1530 c3         1 39Y      -0.075400
      9 C15          4.3210     0.3820     0.8160 c3         1 39Y      -0.085100
     10 H14         -1.4920     1.6970     0.0150 ha         1 39Y       0.086000
     11 H15         -0.6970    -1.1450    -0.7340 ha         1 39Y       0.131000
     12 H16          1.0840     0.2540    -1.8830 hc         1 39Y       0.022200
     13 H17          0.7660     1.5710    -0.7660 hc         1 39Y       0.022200
     14 H18          1.5770     0.1330     1.1150 hc         1 39Y       0.050700
     15 H21          1.1810    -2.1170     0.1010 hc         1 39Y       0.027033
     16 H19          2.4150    -1.7860    -1.1140 hc         1 39Y       0.027033
     17 H20          2.8570    -1.9480     0.5850 hc         1 39Y       0.027033
     18 H23          3.5320     0.5490    -1.1810 hc         1 39Y       0.030200
     19 H22          2.9780     1.7900    -0.0800 hc         1 39Y       0.030200
     20 H26          3.9950     0.4890     1.8520 hc         1 39Y       0.023033
     21 H24          4.6840    -0.6390     0.6880 hc         1 39Y       0.023033
     22 H25          5.1730     1.0470     0.6680 hc         1 39Y       0.023033
     23 OXT         -3.8300     0.8400     0.5420 o          1 39Y      -0.838300
@<TRIPOS>BOND
     1     1     2 1   
     2     2     3 1   
     3     2    23 1   
     4     3     4 2   
     5     3    10 1   
     6     4     5 1   
     7     4    11 1   
     8     5     6 1   
     9     5    12 1   
    10     5    13 1   
    11     6     7 1   
    12     6     8 1   
    13     6    14 1   
    14     7    15 1   
    15     7    16 1   
    16     7    17 1   
    17     8     9 1   
    18     8    18 1   
    19     8    19 1   
    20     9    20 1   
    21     9    21 1   
    22     9    22 1   
@<TRIPOS>SUBSTRUCTURE
     1 39Y         1 TEMP              0 ****  ****    0 ROOT
