@<TRIPOS>MOLECULE
39Y
   23    22     1     0     0
SMALL
No Charge or Current Charge


@<TRIPOS>ATOM
      1 O           -3.2580    -0.9710    -0.3820 o          1 39Y      -0.733000
      2 C8          -2.8460    -0.0260     0.2730 c          1 39Y       0.698200
      3 C9          -1.4530     0.4720     0.0360 ce         1 39Y      -0.250200
      4 C10         -0.5710    -0.0400    -0.8600 c2         1 39Y      -0.277200
      5 C11          0.8390     0.4660    -1.0950 c3         1 39Y      -0.028200
      6 C12          1.8530     0.0010    -0.0160 c3         1 39Y      -0.058700
      7 C13          1.9880    -1.5440     0.0110 c3         1 39Y      -0.080100
      8 C14          3.2220     0.7120    -0.2040 c3         1 39Y      -0.075400
      9 C15          4.2500     0.4540     0.9200 c3         1 39Y      -0.085100
     10 H14         -1.1620     1.3160     0.6580 ha         1 39Y       0.136000
     11 H15         -0.8510    -0.8880    -1.4880 ha         1 39Y       0.181000
     12 H16          1.1900     0.1410    -2.0830 hc         1 39Y       0.022200
     13 H17          0.8240     1.5630    -1.1250 hc         1 39Y       0.022200
     14 H18          1.4550     0.3120     0.9580 hc         1 39Y       0.050700
     15 H21          1.0110    -2.0230     0.1440 hc         1 39Y       0.027033
     16 H19          2.4250    -1.9130    -0.9250 hc         1 39Y       0.027033
     17 H20          2.6240    -1.8720     0.8410 hc         1 39Y       0.027033
     18 H23          3.6620     0.4140    -1.1640 hc         1 39Y       0.030200
     19 H22          3.0540     1.7950    -0.2620 hc         1 39Y       0.030200
     20 H26          3.8240     0.6990     1.9000 hc         1 39Y       0.023033
     21 H24          4.5730    -0.5930     0.9300 hc         1 39Y       0.023033
     22 H25          5.1390     1.0770     0.7690 hc         1 39Y       0.023033
     23 OXT         -3.5130     0.5470     1.1190 o          1 39Y      -0.733000
@<TRIPOS>BOND
     1     1     2 1   
     2     2     3 1   
     3     2    23 1   
     4     3     4 2   
     5     3    10 1   
     6     4     5 1   
     7     4    11 1   
     8     5     6 1   
     9     5    12 1   
    10     5    13 1   
    11     6     7 1   
    12     6     8 1   
    13     6    14 1   
    14     7    15 1   
    15     7    16 1   
    16     7    17 1   
    17     8     9 1   
    18     8    18 1   
    19     8    19 1   
    20     9    20 1   
    21     9    21 1   
    22     9    22 1   
@<TRIPOS>SUBSTRUCTURE
     1 39Y         1 TEMP              0 ****  ****    0 ROOT
