@<TRIPOS>MOLECULE
3A0
   22    22     1     0     0
SMALL
bcc


@<TRIPOS>ATOM
      1 N3           0.0570     1.4290    -0.1410 n7         1 3A0      -0.803200
      2 O4          -2.6080     1.1250    -0.2580 o          1 3A0      -0.838800
      3 C21         -0.4650     0.0790    -0.2490 c6         1 3A0       0.038500
      4 C22         -1.9990     0.0490    -0.0940 c          1 3A0       0.933600
      5 C33          0.2600    -0.8010     0.7650 c6         1 3A0      -0.048400
      6 C34          1.7810    -0.7770     0.5690 c6         1 3A0      -0.062700
      7 C35          2.2170    -1.6070    -0.6370 c3         1 3A0      -0.079100
      8 C36          2.2760     0.6710     0.4810 c6         1 3A0      -0.064400
      9 C37          1.4570     1.4950    -0.5040 c6         1 3A0       0.170800
     10 H3          -0.2650    -0.3380    -1.2570 h1         1 3A0      -0.004300
     11 H41          0.0200    -0.4400     1.7710 hc         1 3A0       0.046700
     12 H42         -0.1080    -1.8260     0.6990 hc         1 3A0       0.046700
     13 H7           2.2400    -1.2340     1.4530 hc         1 3A0       0.017700
     14 H44          1.7900    -1.2440    -1.5740 hc         1 3A0       0.020367
     15 H43          3.3030    -1.5920    -0.7480 hc         1 3A0       0.020367
     16 H45          1.9100    -2.6480    -0.5240 hc         1 3A0       0.020367
     17 H46          2.2010     1.1390     1.4670 hc         1 3A0       0.023200
     18 H47          3.3330     0.6940     0.2000 hc         1 3A0       0.023200
     19 H48          1.6440     1.1380    -1.5320 h1         1 3A0       0.000200
     20 H49          1.7860     2.5370    -0.4750 h1         1 3A0       0.000200
     21 H2          -0.4970     2.0460    -0.7190 hn         1 3A0       0.375800
     22 OXT         -2.5130    -1.0630     0.1380 o          1 3A0      -0.838800
@<TRIPOS>BOND
     1     1     3 1   
     2     1     9 1   
     3     1    21 1   
     4     2     4 1   
     5     3     4 1   
     6     3     5 1   
     7     3    10 1   
     8     4    22 1   
     9     5     6 1   
    10     5    11 1   
    11     5    12 1   
    12     6     7 1   
    13     6     8 1   
    14     6    13 1   
    15     7    14 1   
    16     7    15 1   
    17     7    16 1   
    18     8     9 1   
    19     8    17 1   
    20     8    18 1   
    21     9    19 1   
    22     9    20 1   
@<TRIPOS>SUBSTRUCTURE
     1 3A0         1 TEMP              0 ****  ****    0 ROOT
