@<TRIPOS>MOLECULE
3A0
   22    22     1     0     0
SMALL
No Charge or Current Charge


@<TRIPOS>ATOM
      1 N3           0.0430     1.4660    -0.3040 n7         1 3A0      -0.858400
      2 O4          -2.6280     0.8200     0.6740 o          1 3A0      -0.733500
      3 C21         -0.5080     0.0590    -0.2110 c6         1 3A0       0.038500
      4 C22         -2.0770    -0.0640     0.0270 c          1 3A0       0.723000
      5 C33          0.2730    -0.7630     0.8570 c6         1 3A0      -0.048400
      6 C34          1.8090    -0.7510     0.6100 c6         1 3A0      -0.062700
      7 C35          2.2260    -1.6360    -0.6010 c3         1 3A0      -0.079100
      8 C36          2.3050     0.7160     0.4690 c6         1 3A0      -0.064400
      9 C37          1.4930     1.5040    -0.5940 c6         1 3A0       0.170800
     10 H3          -0.3220    -0.4140    -1.1870 h1         1 3A0      -0.004300
     11 H41          0.0610    -0.3510     1.8530 hc         1 3A0       0.046700
     12 H42         -0.0950    -1.7980     0.8720 hc         1 3A0       0.046700
     13 H7           2.3020    -1.1970     1.4850 hc         1 3A0       0.017700
     14 H44          1.7960    -1.2790    -1.5440 hc         1 3A0       0.020367
     15 H43          3.3160    -1.6510    -0.7190 hc         1 3A0       0.020367
     16 H45          1.8980    -2.6730    -0.4600 hc         1 3A0       0.020367
     17 H46          2.2180     1.2240     1.4390 hc         1 3A0       0.023200
     18 H47          3.3720     0.7330     0.2100 hc         1 3A0       0.023200
     19 H48          1.6740     1.0820    -1.5920 h1         1 3A0       0.000200
     20 H49          1.8290     2.5510    -0.6110 h1         1 3A0       0.000200
     21 H2          -0.4610     1.9730    -1.0440 hn         1 3A0       0.431000
     22 OXT         -2.7050    -0.7190    -0.7970 o          1 3A0      -0.733500
@<TRIPOS>BOND
     1     1     3 1   
     2     1     9 1   
     3     1    21 1   
     4     2     4 1   
     5     3     4 1   
     6     3     5 1   
     7     3    10 1   
     8     4    22 1   
     9     5     6 1   
    10     5    11 1   
    11     5    12 1   
    12     6     7 1   
    13     6     8 1   
    14     6    13 1   
    15     7    14 1   
    16     7    15 1   
    17     7    16 1   
    18     8     9 1   
    19     8    17 1   
    20     8    18 1   
    21     9    19 1   
    22     9    20 1   
@<TRIPOS>SUBSTRUCTURE
     1 3A0         1 TEMP              0 ****  ****    0 ROOT
