@<TRIPOS>MOLECULE
3A1
   81    82     1     0     0
SMALL
bcc


@<TRIPOS>ATOM
      1 C11         -5.3960     0.0310    -0.3890 c          1 3A1       0.672100
      2 C7          -6.6230    -0.8590    -0.5350 c3         1 3A1      -0.127100
      3 C1          -7.7550    -0.1750    -1.2410 ca         1 3A1      -0.044300
      4 C2          -7.9980    -0.4140    -2.5900 ca         1 3A1      -0.108500
      5 C3          -9.0360     0.2340    -3.2510 ca         1 3A1      -0.137500
      6 C4          -9.8440     1.1310    -2.5670 ca         1 3A1      -0.143000
      7 C5          -9.6090     1.3740    -1.2180 ca         1 3A1      -0.137500
      8 C6          -8.5720     0.7270    -0.5640 ca         1 3A1      -0.108500
      9 O12         -5.4750     1.2480    -0.3680 o          1 3A1      -0.614100
     10 N13         -4.2440    -0.6470    -0.2570 ns         1 3A1      -0.522900
     11 C15         -2.9810    -0.0570     0.1300 c3         1 3A1      -0.066500
     12 C16         -2.6650    -0.3960     1.5950 c3         1 3A1      -0.040100
     13 C17         -3.7930    -0.0090     2.5070 ca         1 3A1      -0.042300
     14 C18         -3.9060     1.2970     2.9800 ca         1 3A1      -0.125000
     15 C19         -4.9820     1.6830     3.7650 ca         1 3A1      -0.135000
     16 C20         -5.9740     0.7640     4.0880 ca         1 3A1      -0.153000
     17 C21         -5.8710    -0.5410     3.6280 ca         1 3A1      -0.135000
     18 C22         -4.7880    -0.9220     2.8470 ca         1 3A1      -0.125000
     19 P33         -1.7130    -0.6670    -1.0910 p5         1 3A1       1.072400
     20 O36         -1.5830    -2.1650    -0.8800 o          1 3A1      -0.814500
     21 C37         -0.1610     0.1460    -0.5270 c3         1 3A1      -0.269600
     22 C39          1.0870    -0.3930    -1.2270 c3         1 3A1      -0.091700
     23 C40          1.1450    -0.0430    -2.7170 c3         1 3A1      -0.091100
     24 C45          2.3450     0.1570    -0.5800 c          1 3A1       0.664100
     25 O46          2.4680     1.3330    -0.2640 o          1 3A1      -0.606100
     26 OP3         -2.1130    -0.1460    -2.4540 o          1 3A1      -0.814500
     27 N48          3.3370    -0.7340    -0.4050 ns         1 3A1      -0.561900
     28 C50          4.6680    -0.3180    -0.0480 c3         1 3A1       0.030700
     29 C67          5.2630     0.5690    -1.1470 c          1 3A1       0.649100
     30 O68          4.9480     0.4300    -2.3210 o          1 3A1      -0.654100
     31 C52          5.5650    -1.5390     0.1660 c3         1 3A1      -0.085400
     32 C53          5.1260    -2.4140     1.3340 c3         1 3A1      -0.076400
     33 C54          6.0720    -3.5840     1.5680 c3         1 3A1      -0.078400
     34 C55          5.6250    -4.4740     2.7170 c3         1 3A1       0.143800
     35 N56          6.5610    -5.5720     2.9230 n8         1 3A1      -0.886800
     36 N70          6.1750     1.4400    -0.7130 ns         1 3A1      -0.520900
     37 C72          6.9390     2.3250    -1.5600 c3         1 3A1      -0.040300
     38 C79          7.5800     3.4430    -0.6970 c          1 3A1       0.941600
     39 O81          7.4030     3.3850     0.5350 o          1 3A1      -0.833800
     40 O80          8.2170     4.3030    -1.3290 o          1 3A1      -0.833800
     41 C74          8.0070     1.5870    -2.3500 c3         1 3A1       0.135400
     42 O75          8.9430     1.0480    -1.4430 oh         1 3A1      -0.583800
     43 H7          -6.3600    -1.7910    -1.0390 hc         1 3A1       0.056700
     44 H7A         -6.9240    -1.1350     0.4810 hc         1 3A1       0.056700
     45 H2          -7.3740    -1.1140    -3.1320 ha         1 3A1       0.135000
     46 H3          -9.2120     0.0340    -4.3000 ha         1 3A1       0.117000
     47 H4         -10.6540     1.6340    -3.0790 ha         1 3A1       0.113000
     48 H5         -10.2370     2.0690    -0.6750 ha         1 3A1       0.117000
     49 H6          -8.3990     0.9190     0.4880 ha         1 3A1       0.135000
     50 HN13        -4.2780    -1.6550    -0.2910 hn         1 3A1       0.311500
     51 H15         -3.0790     1.0250     0.0230 h1         1 3A1       0.085700
     52 H16         -2.4590    -1.4670     1.6760 hc         1 3A1       0.056700
     53 H16A        -1.7530     0.1260     1.8940 hc         1 3A1       0.056700
     54 H18         -3.1410     2.0220     2.7270 ha         1 3A1       0.130500
     55 H19         -5.0490     2.7020     4.1250 ha         1 3A1       0.113000
     56 H20         -6.8170     1.0630     4.6980 ha         1 3A1       0.109000
     57 H21         -6.6340    -1.2680     3.8800 ha         1 3A1       0.113000
     58 H22         -4.7160    -1.9450     2.4960 ha         1 3A1       0.130500
     59 H37         -0.2410     1.2270    -0.6680 hc         1 3A1       0.053700
     60 H37A        -0.0600    -0.0240     0.5490 hc         1 3A1       0.053700
     61 H39          1.0900    -1.4830    -1.1270 hc         1 3A1       0.052700
     62 H40          2.0750    -0.3920    -3.1670 hc         1 3A1       0.045700
     63 H40A         0.3120    -0.4950    -3.2510 hc         1 3A1       0.045700
     64 H40B         1.0860     1.0370    -2.8620 hc         1 3A1       0.045700
     65 HN48         3.2170    -1.6610    -0.7820 hn         1 3A1       0.306500
     66 H50          4.6290     0.2470     0.8880 h1         1 3A1       0.075700
     67 H52          5.5970    -2.1300    -0.7560 hc         1 3A1       0.052700
     68 H52A         6.5830    -1.1830     0.3410 hc         1 3A1       0.052700
     69 H53          5.0690    -1.8010     2.2390 hc         1 3A1       0.043200
     70 H53A         4.1160    -2.7960     1.1600 hc         1 3A1       0.043200
     71 H54          6.1400    -4.1830     0.6520 hc         1 3A1       0.042700
     72 H54A         7.0810    -3.2130     1.7720 hc         1 3A1       0.042700
     73 H55          5.5870    -3.8800     3.6340 h1         1 3A1       0.028200
     74 H33          4.5950    -4.8090     2.5260 h1         1 3A1       0.028200
     75 HN56         6.2420    -6.1430     3.6950 hn         1 3A1       0.326800
     76 H35          6.5400    -6.1780     2.1120 hn         1 3A1       0.326800
     77 HN70         6.3410     1.5560     0.2770 hn         1 3A1       0.343500
     78 H72          6.2690     2.8020    -2.2830 h1         1 3A1       0.062700
     79 H74          7.5370     0.8030    -2.9560 h1         1 3A1       0.014700
     80 H74A         8.4710     2.2960    -3.0440 h1         1 3A1       0.014700
     81 HO75         9.5750     0.5240    -1.9430 ho         1 3A1       0.363000
@<TRIPOS>BOND
     1     1     2 1   
     2     1     9 2   
     3     1    10 1   
     4     2     3 1   
     5     2    43 1   
     6     2    44 1   
     7     3     4 ar  
     8     3     8 ar  
     9     4     5 ar  
    10     4    45 1   
    11     5     6 ar  
    12     5    46 1   
    13     6     7 ar  
    14     6    47 1   
    15     7     8 ar  
    16     7    48 1   
    17     8    49 1   
    18    10    11 1   
    19    10    50 1   
    20    11    12 1   
    21    11    19 1   
    22    11    51 1   
    23    12    13 1   
    24    12    52 1   
    25    12    53 1   
    26    13    14 ar  
    27    13    18 ar  
    28    14    15 ar  
    29    14    54 1   
    30    15    16 ar  
    31    15    55 1   
    32    16    17 ar  
    33    16    56 1   
    34    17    18 ar  
    35    17    57 1   
    36    18    58 1   
    37    19    20 1   
    38    19    21 1   
    39    19    26 1   
    40    21    22 1   
    41    21    59 1   
    42    21    60 1   
    43    22    23 1   
    44    22    24 1   
    45    22    61 1   
    46    23    62 1   
    47    23    63 1   
    48    23    64 1   
    49    24    25 2   
    50    24    27 1   
    51    27    28 1   
    52    27    65 1   
    53    28    29 1   
    54    28    31 1   
    55    28    66 1   
    56    29    30 2   
    57    29    36 1   
    58    31    32 1   
    59    31    67 1   
    60    31    68 1   
    61    32    33 1   
    62    32    69 1   
    63    32    70 1   
    64    33    34 1   
    65    33    71 1   
    66    33    72 1   
    67    34    35 1   
    68    34    73 1   
    69    34    74 1   
    70    35    75 1   
    71    35    76 1   
    72    36    37 1   
    73    36    77 1   
    74    37    38 1   
    75    37    41 1   
    76    37    78 1   
    77    38    39 1   
    78    38    40 1   
    79    41    42 1   
    80    41    79 1   
    81    41    80 1   
    82    42    81 1   
@<TRIPOS>SUBSTRUCTURE
     1 3A1         1 TEMP              0 ****  ****    0 ROOT
