@<TRIPOS>MOLECULE
3A1
   81    82     1     0     0
SMALL
No Charge or Current Charge


@<TRIPOS>ATOM
      1 C11         -5.0640    -0.6590     0.4970 c          1 3A1       0.605100
      2 C7          -6.5100    -1.1130     0.2720 c3         1 3A1      -0.127100
      3 C1          -7.2950    -0.0540    -0.4930 ca         1 3A1      -0.044300
      4 C2          -7.2860    -0.0420    -1.9020 ca         1 3A1      -0.090500
      5 C3          -8.0080     0.9360    -2.6070 ca         1 3A1      -0.119500
      6 C4          -8.7420     1.9090    -1.9090 ca         1 3A1      -0.125000
      7 C5          -8.7540     1.9040    -0.5050 ca         1 3A1      -0.119500
      8 C6          -8.0320     0.9260     0.2020 ca         1 3A1      -0.090500
      9 O12         -4.7610     0.1700     1.3470 o          1 3A1      -0.614100
     10 N13         -4.1320    -1.2490    -0.3380 ns         1 3A1      -0.455900
     11 C15         -2.6550    -1.0220    -0.2870 c3         1 3A1      -0.224300
     12 C16         -1.9290    -2.2680     0.2870 c3         1 3A1      -0.040100
     13 C17         -2.4330    -2.6580     1.6720 ca         1 3A1      -0.042300
     14 C18         -2.0090    -1.9380     2.8060 ca         1 3A1      -0.107000
     15 C19         -2.4740    -2.2900     4.0850 ca         1 3A1      -0.117000
     16 C20         -3.3680    -3.3630     4.2370 ca         1 3A1      -0.135000
     17 C21         -3.7960    -4.0840     3.1100 ca         1 3A1      -0.117000
     18 C22         -3.3300    -3.7330     1.8310 ca         1 3A1      -0.107000
     19 P33         -1.8820    -0.3800    -1.8710 p5         1 3A1       1.388000
     20 O36         -1.4320    -1.5150    -2.7360 o          1 3A1      -0.814500
     21 C37         -0.4200     0.5700    -1.2680 c3         1 3A1      -0.427400
     22 C39          0.7520     0.8280    -2.2700 c3         1 3A1      -0.091700
     23 C40          0.3570     1.7840    -3.4200 c3         1 3A1      -0.091100
     24 C45          2.0190     1.3440    -1.5390 c          1 3A1       0.597100
     25 O46          2.0560     2.4170    -0.9490 o          1 3A1      -0.606100
     26 OP3         -2.8220     0.5460    -2.5780 o          1 3A1      -0.814500
     27 N48          3.1050     0.4970    -1.5910 ns         1 3A1      -0.494900
     28 C50          4.3930     0.7130    -0.8920 c3         1 3A1       0.030700
     29 C67          5.5840     0.2910    -1.8050 c          1 3A1       0.582100
     30 O68          5.4450    -0.3670    -2.8320 o          1 3A1      -0.654100
     31 C52          4.4270    -0.0460     0.4640 c3         1 3A1      -0.085400
     32 C53          3.2970     0.3370     1.4520 c3         1 3A1      -0.076400
     33 C54          3.4150    -0.3810     2.8150 c3         1 3A1      -0.078400
     34 C55          2.2750    -0.0100     3.7870 c3         1 3A1       0.143800
     35 N56          2.4240    -0.6970     5.0830 n8         1 3A1      -0.997200
     36 N70          6.8220     0.7260    -1.3820 ns         1 3A1      -0.453900
     37 C72          8.1200     0.4030    -2.0340 c3         1 3A1      -0.040300
     38 C79          9.2510     1.3680    -1.5670 c          1 3A1       0.731000
     39 O81          9.0810     2.0340    -0.5520 o          1 3A1      -0.728500
     40 O80         10.2120     1.5230    -2.3090 o          1 3A1      -0.728500
     41 C74          8.5360    -1.0760    -1.8460 c3         1 3A1       0.158600
     42 O75          8.6050    -1.4240    -0.4560 oh         1 3A1      -0.646000
     43 H7          -6.5220    -2.0490    -0.2980 hc         1 3A1       0.056700
     44 H7A         -6.9780    -1.2840     1.2490 hc         1 3A1       0.056700
     45 H2          -6.7190    -0.7900    -2.4520 ha         1 3A1       0.117000
     46 H3          -7.9970     0.9400    -3.6950 ha         1 3A1       0.099000
     47 H4          -9.3000     2.6670    -2.4560 ha         1 3A1       0.095000
     48 H5          -9.3200     2.6580     0.0370 ha         1 3A1       0.099000
     49 H6          -8.0440     0.9310     1.2890 ha         1 3A1       0.117000
     50 HN13        -4.4990    -1.9030    -1.0210 hn         1 3A1       0.311500
     51 H15         -2.4630    -0.1840     0.3930 h1         1 3A1       0.085700
     52 H16         -2.0500    -3.1070    -0.4100 hc         1 3A1       0.056700
     53 H16A        -0.8510    -2.0750     0.3360 hc         1 3A1       0.056700
     54 H18         -1.3200    -1.1040     2.6950 ha         1 3A1       0.112500
     55 H19         -2.1440    -1.7300     4.9570 ha         1 3A1       0.095000
     56 H20         -3.7290    -3.6350     5.2270 ha         1 3A1       0.091000
     57 H21         -4.4900    -4.9140     3.2270 ha         1 3A1       0.095000
     58 H22         -3.6690    -4.2950     0.9640 ha         1 3A1       0.112500
     59 H37         -0.7990     1.5200    -0.8760 hc         1 3A1       0.053700
     60 H37A        -0.0350     0.0050    -0.4130 hc         1 3A1       0.053700
     61 H39          1.0110    -0.1370    -2.7240 hc         1 3A1       0.052700
     62 H40          1.2080     1.9470    -4.0930 hc         1 3A1       0.045700
     63 H40A        -0.4650     1.3690    -4.0150 hc         1 3A1       0.045700
     64 H40B         0.0410     2.7590    -3.0280 hc         1 3A1       0.045700
     65 HN48         2.9970    -0.3500    -2.1370 hn         1 3A1       0.306500
     66 H50          4.5150     1.7870    -0.6960 h1         1 3A1       0.075700
     67 H52          4.3780    -1.1250     0.2690 hc         1 3A1       0.052700
     68 H52A         5.3930     0.1390     0.9510 hc         1 3A1       0.052700
     69 H53          3.3130     1.4220     1.6150 hc         1 3A1       0.043200
     70 H53A         2.3240     0.0920     1.0110 hc         1 3A1       0.043200
     71 H54          3.4110    -1.4660     2.6500 hc         1 3A1       0.042700
     72 H54A         4.3780    -0.1270     3.2740 hc         1 3A1       0.042700
     73 H55          2.2760     1.0750     3.9610 h1         1 3A1       0.028200
     74 H33          1.3080    -0.2910     3.3470 h1         1 3A1       0.028200
     75 HN56         1.6130    -0.4750     5.6730 hn         1 3A1       0.382000
     76 H35          2.3460    -1.7090     4.9340 hn         1 3A1       0.382000
     77 HN70         6.8540     1.2690    -0.5260 hn         1 3A1       0.343500
     78 H72          7.9990     0.5780    -3.1110 h1         1 3A1       0.062700
     79 H74          7.8060    -1.7200    -2.3540 h1         1 3A1       0.014700
     80 H74A         9.5090    -1.2420    -2.3270 h1         1 3A1       0.014700
     81 HO75         8.8320    -2.3780    -0.4120 ho         1 3A1       0.402000
@<TRIPOS>BOND
     1     1     2 1   
     2     1     9 2   
     3     1    10 1   
     4     2     3 1   
     5     2    43 1   
     6     2    44 1   
     7     3     4 ar  
     8     3     8 ar  
     9     4     5 ar  
    10     4    45 1   
    11     5     6 ar  
    12     5    46 1   
    13     6     7 ar  
    14     6    47 1   
    15     7     8 ar  
    16     7    48 1   
    17     8    49 1   
    18    10    11 1   
    19    10    50 1   
    20    11    12 1   
    21    11    19 1   
    22    11    51 1   
    23    12    13 1   
    24    12    52 1   
    25    12    53 1   
    26    13    14 ar  
    27    13    18 ar  
    28    14    15 ar  
    29    14    54 1   
    30    15    16 ar  
    31    15    55 1   
    32    16    17 ar  
    33    16    56 1   
    34    17    18 ar  
    35    17    57 1   
    36    18    58 1   
    37    19    20 1   
    38    19    21 1   
    39    19    26 1   
    40    21    22 1   
    41    21    59 1   
    42    21    60 1   
    43    22    23 1   
    44    22    24 1   
    45    22    61 1   
    46    23    62 1   
    47    23    63 1   
    48    23    64 1   
    49    24    25 2   
    50    24    27 1   
    51    27    28 1   
    52    27    65 1   
    53    28    29 1   
    54    28    31 1   
    55    28    66 1   
    56    29    30 2   
    57    29    36 1   
    58    31    32 1   
    59    31    67 1   
    60    31    68 1   
    61    32    33 1   
    62    32    69 1   
    63    32    70 1   
    64    33    34 1   
    65    33    71 1   
    66    33    72 1   
    67    34    35 1   
    68    34    73 1   
    69    34    74 1   
    70    35    75 1   
    71    35    76 1   
    72    36    37 1   
    73    36    77 1   
    74    37    38 1   
    75    37    41 1   
    76    37    78 1   
    77    38    39 1   
    78    38    40 1   
    79    41    42 1   
    80    41    79 1   
    81    41    80 1   
    82    42    81 1   
@<TRIPOS>SUBSTRUCTURE
     1 3A1         1 TEMP              0 ****  ****    0 ROOT
