@<TRIPOS>MOLECULE
3A2
   85    87     1     0     0
SMALL
abcg2


@<TRIPOS>ATOM
      1 N1          15.5480    41.6620    31.5290 n8         1 3A2      -1.002200
      2 C2          14.4090    41.2950    30.7040 c3         1 3A2       0.065800
      3 C3          14.8090    40.2330    29.6880 c          1 3A2       0.618100
      4 O4          14.3800    39.0890    29.7730 o          1 3A2      -0.648100
      5 N5          15.6790    40.5890    28.7260 n          1 3A2      -0.372800
      6 C6          16.1510    41.9330    28.4750 c5         1 3A2       0.020700
      7 C10         15.0460    42.8050    27.8810 c          1 3A2       0.582100
      8 O11         14.0820    42.3230    27.3040 o          1 3A2      -0.620100
      9 C7          17.2770    41.7210    27.4550 c5         1 3A2      -0.080400
     10 C8          16.8080    40.5030    26.6650 c5         1 3A2      -0.095400
     11 C9          16.1180    39.6360    27.7130 c5         1 3A2       0.104000
     12 N12         15.2500    44.1170    28.0480 ns         1 3A2      -0.449900
     13 C13         14.3860    45.1530    27.5350 c3         1 3A2      -0.226300
     14 C14         14.0330    46.1370    28.6540 c3         1 3A2      -0.042100
     15 C15         13.3760    45.4590    29.8230 ca         1 3A2      -0.031300
     16 C16         12.0610    45.0050    29.7360 ca         1 3A2      -0.106000
     17 C17         11.4590    44.3470    30.7990 ca         1 3A2      -0.125000
     18 C18         12.1650    44.1340    31.9770 ca         1 3A2      -0.142000
     19 C19         13.4730    44.5850    32.0800 ca         1 3A2      -0.125000
     20 C20         14.0730    45.2370    31.0080 ca         1 3A2      -0.106000
     21 P21         15.1700    45.9800    26.0510 p5         1 3A2       1.383000
     22 O22         16.1240    47.0500    26.5410 o          1 3A2      -0.813000
     23 O23         15.6960    44.8960    25.1340 o          1 3A2      -0.813000
     24 C24         13.6850    46.7600    25.2690 c3         1 3A2      -0.433400
     25 C25         14.0040    48.0510    24.5310 c3         1 3A2      -0.096400
     26 C26         14.1260    49.2530    25.4410 c          1 3A2       0.613100
     27 O27         13.7050    49.2660    26.5890 o          1 3A2      -0.551100
     28 N28         14.6680    50.3630    24.8870 n          1 3A2      -0.435800
     29 C29         14.8840    51.5620    25.6790 c5         1 3A2       0.028700
     30 C33         13.6250    52.3750    25.9790 c          1 3A2       0.603100
     31 O34         13.6690    53.2330    26.8540 o          1 3A2      -0.624100
     32 C30         15.8690    52.3680    24.8210 c5         1 3A2      -0.083400
     33 C31         15.5220    51.9510    23.3980 c5         1 3A2      -0.098400
     34 C32         15.2260    50.4630    23.5400 c5         1 3A2       0.110000
     35 N35         12.5530    52.1380    25.2230 ns         1 3A2      -0.455900
     36 C36         11.2710    52.7990    25.4130 c3         1 3A2      -0.024300
     37 C41         10.7380    52.5900    26.8670 c          1 3A2       0.725000
     38 O43         10.1740    53.5570    27.4120 o          1 3A2      -0.717000
     39 C37         11.2830    54.2470    24.9160 c3         1 3A2      -0.055400
     40 C38          9.9120    54.7470    24.4770 c3         1 3A2      -0.071400
     41 C39          9.9370    56.1850    23.9740 c3         1 3A2      -0.074400
     42 C40          8.5680    56.6760    23.5260 c3         1 3A2      -0.084100
     43 O42         10.8820    51.4460    27.3330 o          1 3A2      -0.717000
     44 HN1         15.3120    42.4790    32.0760 hn         1 3A2       0.395000
     45 H43         15.7450    40.9230    32.1920 hn         1 3A2       0.395000
     46 H2          13.5570    40.8950    31.2640 h1         1 3A2       0.064700
     47 H44         14.0490    42.1940    30.1990 h1         1 3A2       0.064700
     48 H6          16.5250    42.3860    29.3960 h1         1 3A2       0.084700
     49 H7          17.4490    42.6000    26.8330 hc         1 3A2       0.062700
     50 H7A         18.2050    41.5010    27.9860 hc         1 3A2       0.062700
     51 H8          16.0990    40.8000    25.8920 hc         1 3A2       0.057700
     52 H8A         17.6270    39.9780    26.1770 hc         1 3A2       0.057700
     53 H9          16.8080    38.9110    28.1520 h1         1 3A2       0.041200
     54 H9A         15.2740    39.0800    27.3030 h1         1 3A2       0.041200
     55 HN12        16.0840    44.4130    28.5340 hn         1 3A2       0.306500
     56 H13         13.4720    44.6640    27.1890 h1         1 3A2       0.073700
     57 H14         14.9430    46.6460    28.9830 hc         1 3A2       0.079700
     58 H14A        13.3800    46.9130    28.2480 hc         1 3A2       0.079700
     59 H16         11.4990    45.1720    28.8230 ha         1 3A2       0.115500
     60 H17         10.4360    44.0050    30.7100 ha         1 3A2       0.093500
     61 H18         11.6960    43.6250    32.8100 ha         1 3A2       0.090000
     62 H19         14.0290    44.4330    32.9970 ha         1 3A2       0.093500
     63 H20         15.0960    45.5840    31.0990 ha         1 3A2       0.115500
     64 H24         13.2600    46.0370    24.5700 hc         1 3A2       0.058200
     65 H24A        12.9150    46.9470    26.0200 hc         1 3A2       0.058200
     66 H25         14.9040    47.9410    23.9220 hc         1 3A2       0.033700
     67 H25A        13.2030    48.2780    23.8180 hc         1 3A2       0.033700
     68 H29         15.3220    51.3110    26.6470 h1         1 3A2       0.100700
     69 H30         15.7940    53.4410    24.9940 hc         1 3A2       0.048700
     70 H30A        16.8890    52.0650    25.0640 hc         1 3A2       0.048700
     71 H31         14.6360    52.4840    23.0460 hc         1 3A2       0.039200
     72 H31A        16.3250    52.1410    22.6880 hc         1 3A2       0.039200
     73 H32         16.1420    49.8710    23.4540 h1         1 3A2       0.034700
     74 H32A        14.5230    50.1060    22.7880 h1         1 3A2       0.034700
     75 HN35        12.6030    51.3900    24.5530 hn         1 3A2       0.298500
     76 H36         10.5840    52.2420    24.7660 h1         1 3A2       0.014700
     77 H37         11.6900    54.9070    25.6840 hc         1 3A2       0.027700
     78 H37A        11.9600    54.3120    24.0580 hc         1 3A2       0.027700
     79 H38          9.5280    54.0970    23.6830 hc         1 3A2       0.042700
     80 H38A         9.2100    54.6640    25.3090 hc         1 3A2       0.042700
     81 H39         10.3200    56.8380    24.7650 hc         1 3A2       0.027200
     82 H39A        10.6460    56.2680    23.1440 hc         1 3A2       0.027200
     83 H40          8.6030    57.7110    23.1830 hc         1 3A2       0.017367
     84 H40A         8.1800    56.0690    22.7060 hc         1 3A2       0.017367
     85 H40B         7.8450    56.6230    24.3430 hc         1 3A2       0.017367
@<TRIPOS>BOND
     1     1     2 1   
     2     1    44 1   
     3     1    45 1   
     4     2     3 1   
     5     2    46 1   
     6     2    47 1   
     7     3     4 2   
     8     3     5 1   
     9     5     6 1   
    10     5    11 1   
    11     6     7 1   
    12     6     9 1   
    13     6    48 1   
    14     7     8 2   
    15     7    12 1   
    16     9    10 1   
    17     9    49 1   
    18     9    50 1   
    19    10    11 1   
    20    10    51 1   
    21    10    52 1   
    22    11    53 1   
    23    11    54 1   
    24    12    13 1   
    25    12    55 1   
    26    13    14 1   
    27    13    21 1   
    28    13    56 1   
    29    14    15 1   
    30    14    57 1   
    31    14    58 1   
    32    15    16 ar  
    33    15    20 ar  
    34    16    17 ar  
    35    16    59 1   
    36    17    18 ar  
    37    17    60 1   
    38    18    19 ar  
    39    18    61 1   
    40    19    20 ar  
    41    19    62 1   
    42    20    63 1   
    43    21    22 1   
    44    21    23 1   
    45    21    24 1   
    46    24    25 1   
    47    24    64 1   
    48    24    65 1   
    49    25    26 1   
    50    25    66 1   
    51    25    67 1   
    52    26    27 2   
    53    26    28 1   
    54    28    29 1   
    55    28    34 1   
    56    29    30 1   
    57    29    32 1   
    58    29    68 1   
    59    30    31 2   
    60    30    35 1   
    61    32    33 1   
    62    32    69 1   
    63    32    70 1   
    64    33    34 1   
    65    33    71 1   
    66    33    72 1   
    67    34    73 1   
    68    34    74 1   
    69    35    36 1   
    70    35    75 1   
    71    36    37 1   
    72    36    39 1   
    73    36    76 1   
    74    37    38 1   
    75    37    43 1   
    76    39    40 1   
    77    39    77 1   
    78    39    78 1   
    79    40    41 1   
    80    40    79 1   
    81    40    80 1   
    82    41    42 1   
    83    41    81 1   
    84    41    82 1   
    85    42    83 1   
    86    42    84 1   
    87    42    85 1   
@<TRIPOS>SUBSTRUCTURE
     1 3A2         1 TEMP              0 ****  ****    0 ROOT
