@<TRIPOS>MOLECULE
3A2
   85    87     1     0     0
SMALL
No Charge or Current Charge


@<TRIPOS>ATOM
      1 N1          15.5890    41.9470    32.1130 n8         1 3A2      -1.002200
      2 C2          14.5550    41.5080    31.1060 c3         1 3A2       0.065800
      3 C3          14.9240    40.2780    30.2010 c          1 3A2       0.618100
      4 O4          14.5820    39.1410    30.5140 o          1 3A2      -0.648100
      5 N5          15.6960    40.4970    29.0370 n          1 3A2      -0.372800
      6 C6          16.1020    41.8440    28.5460 c5         1 3A2       0.020700
      7 C10         14.9510    42.6360    27.8450 c          1 3A2       0.582100
      8 O11         13.8600    42.2010    27.4950 o          1 3A2      -0.620100
      9 C7          17.1910    41.4570    27.4980 c5         1 3A2      -0.080400
     10 C8          16.6160    40.1510    26.8930 c5         1 3A2      -0.095400
     11 C9          16.1380    39.3930    28.1580 c5         1 3A2       0.104000
     12 N12         15.3280    43.9620    27.7080 ns         1 3A2      -0.449900
     13 C13         14.4760    45.0420    27.1270 c3         1 3A2      -0.226300
     14 C14         14.0310    46.0450    28.2270 c3         1 3A2      -0.042100
     15 C15         13.4080    45.3780    29.4520 ca         1 3A2      -0.031300
     16 C16         12.2480    44.5890    29.3210 ca         1 3A2      -0.106000
     17 C17         11.6680    43.9830    30.4500 ca         1 3A2      -0.125000
     18 C18         12.2400    44.1680    31.7190 ca         1 3A2      -0.142000
     19 C19         13.3940    44.9570    31.8580 ca         1 3A2      -0.125000
     20 C20         13.9770    45.5590    30.7290 ca         1 3A2      -0.106000
     21 P21         15.1980    45.8700    25.6050 p5         1 3A2       1.383000
     22 O22         16.1960    46.9140    25.9930 o          1 3A2      -0.813000
     23 O23         15.7850    44.8430    24.6880 o          1 3A2      -0.813000
     24 C24         13.7450    46.6450    24.7670 c3         1 3A2      -0.433400
     25 C25         13.9740    48.0950    24.2350 c3         1 3A2      -0.096400
     26 C26         14.1480    49.2150    25.2980 c          1 3A2       0.613100
     27 O27         13.7840    49.0600    26.4570 o          1 3A2      -0.551100
     28 N28         14.6680    50.4620    24.8870 n          1 3A2      -0.435800
     29 C29         14.8830    51.5950    25.8430 c5         1 3A2       0.028700
     30 C33         13.6330    52.4760    26.1940 c          1 3A2       0.603100
     31 O34         13.5890    53.3570    27.0440 o          1 3A2      -0.624100
     32 C30         15.9130    52.4590    25.0560 c5         1 3A2      -0.083400
     33 C31         15.4520    52.2600    23.5900 c5         1 3A2      -0.098400
     34 C32         15.2150    50.7300    23.5390 c5         1 3A2       0.110000
     35 N35         12.5480    52.1010    25.4220 ns         1 3A2      -0.455900
     36 C36         11.2080    52.7360    25.4150 c3         1 3A2      -0.024300
     37 C41         10.4400    52.4530    26.7570 c          1 3A2       0.725000
     38 O43         10.3120    53.3440    27.5870 o          1 3A2      -0.717000
     39 C37         11.2680    54.2290    24.9860 c3         1 3A2      -0.055400
     40 C38          9.8920    54.8190    24.5960 c3         1 3A2      -0.071400
     41 C39          9.9750    56.2920    24.1390 c3         1 3A2      -0.074400
     42 C40          8.6060    56.8810    23.7470 c3         1 3A2      -0.084100
     43 O42          9.9460    51.3420    26.9000 o          1 3A2      -0.717000
     44 HN1         15.2050    42.7110    32.6830 hn         1 3A2       0.395000
     45 H43         15.7480    41.1910    32.7930 hn         1 3A2       0.395000
     46 H2          13.6330    41.2430    31.6430 h1         1 3A2       0.064700
     47 H44         14.3080    42.3570    30.4560 h1         1 3A2       0.064700
     48 H6          16.5220    42.4660    29.3490 h1         1 3A2       0.084700
     49 H7          17.3640    42.2340    26.7440 hc         1 3A2       0.062700
     50 H7A         18.1530    41.2670    27.9890 hc         1 3A2       0.062700
     51 H8          15.7770    40.3600    26.2180 hc         1 3A2       0.057700
     52 H8A         17.3590    39.5830    26.3230 hc         1 3A2       0.057700
     53 H9          16.9600    38.8380    28.6280 h1         1 3A2       0.041200
     54 H9A         15.3260    38.6890    27.9300 h1         1 3A2       0.041200
     55 HN12        16.2590    44.2030    28.0330 hn         1 3A2       0.306500
     56 H13         13.5740    44.5770    26.7130 h1         1 3A2       0.073700
     57 H14         14.8970    46.6500    28.5250 hc         1 3A2       0.079700
     58 H14A        13.3080    46.7520    27.8030 hc         1 3A2       0.079700
     59 H16         11.7960    44.4430    28.3430 ha         1 3A2       0.115500
     60 H17         10.7740    43.3740    30.3400 ha         1 3A2       0.093500
     61 H18         11.7900    43.7020    32.5920 ha         1 3A2       0.090000
     62 H19         13.8370    45.1040    32.8410 ha         1 3A2       0.093500
     63 H20         14.8700    46.1670    30.8490 ha         1 3A2       0.115500
     64 H24         13.4950    45.9840    23.9300 hc         1 3A2       0.058200
     65 H24A        12.8960    46.6250    25.4570 hc         1 3A2       0.058200
     66 H25         14.8140    48.1210    23.5320 hc         1 3A2       0.033700
     67 H25A        13.1400    48.4010    23.5920 hc         1 3A2       0.033700
     68 H29         15.3040    51.2450    26.7950 h1         1 3A2       0.100700
     69 H30         15.9180    53.5120    25.3620 hc         1 3A2       0.048700
     70 H30A        16.9310    52.0780    25.1990 hc         1 3A2       0.048700
     71 H31         14.5290    52.8140    23.3810 hc         1 3A2       0.039200
     72 H31A        16.2020    52.5900    22.8620 hc         1 3A2       0.039200
     73 H32         16.1550    50.1830    23.3890 h1         1 3A2       0.034700
     74 H32A        14.5150    50.4540    22.7390 h1         1 3A2       0.034700
     75 HN35        12.7220    51.3430    24.7740 hn         1 3A2       0.298500
     76 H36         10.6450    52.2130    24.6310 h1         1 3A2       0.014700
     77 H37         11.7110    54.8350    25.7860 hc         1 3A2       0.027700
     78 H37A        11.9360    54.3170    24.1200 hc         1 3A2       0.027700
     79 H38          9.4600    54.2170    23.7880 hc         1 3A2       0.042700
     80 H38A         9.2070    54.7480    25.4490 hc         1 3A2       0.042700
     81 H39         10.4050    56.8990    24.9460 hc         1 3A2       0.027200
     82 H39A        10.6550    56.3700    23.2820 hc         1 3A2       0.027200
     83 H40          8.7160    57.9250    23.4310 hc         1 3A2       0.017367
     84 H40A         8.1650    56.3160    22.9170 hc         1 3A2       0.017367
     85 H40B         7.9130    56.8500    24.5960 hc         1 3A2       0.017367
@<TRIPOS>BOND
     1     1     2 1   
     2     1    44 1   
     3     1    45 1   
     4     2     3 1   
     5     2    46 1   
     6     2    47 1   
     7     3     4 2   
     8     3     5 1   
     9     5     6 1   
    10     5    11 1   
    11     6     7 1   
    12     6     9 1   
    13     6    48 1   
    14     7     8 2   
    15     7    12 1   
    16     9    10 1   
    17     9    49 1   
    18     9    50 1   
    19    10    11 1   
    20    10    51 1   
    21    10    52 1   
    22    11    53 1   
    23    11    54 1   
    24    12    13 1   
    25    12    55 1   
    26    13    14 1   
    27    13    21 1   
    28    13    56 1   
    29    14    15 1   
    30    14    57 1   
    31    14    58 1   
    32    15    16 ar  
    33    15    20 ar  
    34    16    17 ar  
    35    16    59 1   
    36    17    18 ar  
    37    17    60 1   
    38    18    19 ar  
    39    18    61 1   
    40    19    20 ar  
    41    19    62 1   
    42    20    63 1   
    43    21    22 1   
    44    21    23 1   
    45    21    24 1   
    46    24    25 1   
    47    24    64 1   
    48    24    65 1   
    49    25    26 1   
    50    25    66 1   
    51    25    67 1   
    52    26    27 2   
    53    26    28 1   
    54    28    29 1   
    55    28    34 1   
    56    29    30 1   
    57    29    32 1   
    58    29    68 1   
    59    30    31 2   
    60    30    35 1   
    61    32    33 1   
    62    32    69 1   
    63    32    70 1   
    64    33    34 1   
    65    33    71 1   
    66    33    72 1   
    67    34    73 1   
    68    34    74 1   
    69    35    36 1   
    70    35    75 1   
    71    36    37 1   
    72    36    39 1   
    73    36    76 1   
    74    37    38 1   
    75    37    43 1   
    76    39    40 1   
    77    39    77 1   
    78    39    78 1   
    79    40    41 1   
    80    40    79 1   
    81    40    80 1   
    82    41    42 1   
    83    41    81 1   
    84    41    82 1   
    85    42    83 1   
    86    42    84 1   
    87    42    85 1   
@<TRIPOS>SUBSTRUCTURE
     1 3A2         1 TEMP              0 ****  ****    0 ROOT
