@<TRIPOS>MOLECULE
3A3
   36    38     1     0     0
SMALL
No Charge or Current Charge


@<TRIPOS>ATOM
      1 O24         -8.2960    -0.8720    -0.0200 o          1 3A3      -0.718500
      2 C11         -7.3400    -0.1070    -0.0220 c          1 3A3       0.729000
      3 O14         -7.4640     1.1120    -0.0290 o          1 3A3      -0.718500
      4 C19         -5.9140    -0.7370    -0.0130 c3         1 3A3       0.006600
      5 O17         -4.8520     0.2490    -0.0150 os         1 3A3      -0.299600
      6 C15         -3.5170    -0.1040    -0.0090 ca         1 3A3       0.155600
      7 C10         -2.5650     0.9380    -0.0120 ca         1 3A3      -0.107500
      8 C22         -3.0910    -1.4600     0.0010 ca         1 3A3      -0.213000
      9 C8          -1.7170    -1.7770     0.0070 ca         1 3A3      -0.066000
     10 C4          -0.7850    -0.7240     0.0040 cp         1 3A3      -0.076000
     11 C3          -1.1980     0.6100    -0.0050 ca         1 3A3      -0.129900
     12 C1          -0.0430     1.5110    -0.0070 cc         1 3A3       0.487500
     13 N6          -0.1270     2.8220    -0.0150 n2         1 3A3      -0.335700
     14 O23          1.0660     3.5710    -0.0150 oh         1 3A3      -0.500000
     15 C2           1.1270     0.6020     0.0020 ca         1 3A3      -0.129900
     16 C9           2.5100     0.8830     0.0050 ca         1 3A3      -0.107500
     17 C5           0.6880    -0.7320     0.0090 cp         1 3A3      -0.076000
     18 C7           1.5940    -1.8070     0.0180 ca         1 3A3      -0.066000
     19 C21          2.9740    -1.5280     0.0210 ca         1 3A3      -0.213000
     20 C16          3.4330    -0.1840     0.0150 ca         1 3A3       0.155600
     21 O18          4.7770     0.1330     0.0170 os         1 3A3      -0.299600
     22 C20          5.8130    -0.8800     0.0270 c3         1 3A3       0.006600
     23 C12          7.2540    -0.2870     0.0280 c          1 3A3       0.729000
     24 O25          8.1910    -1.0760     0.0360 o          1 3A3      -0.718500
     25 O13          7.4100     0.9290     0.0210 o          1 3A3      -0.718500
     26 H191        -5.8310    -1.3820    -0.8980 h1         1 3A3       0.015450
     27 H192        -5.8370    -1.3710     0.8800 h1         1 3A3       0.015450
     28 H10         -2.8900     1.9750    -0.0190 ha         1 3A3       0.140000
     29 H22         -3.8100    -2.2750     0.0030 ha         1 3A3       0.115500
     30 H8          -1.3840    -2.8130     0.0140 ha         1 3A3       0.098500
     31 H23          0.7770     4.5150    -0.0220 ho         1 3A3       0.455000
     32 H9           2.8860     1.9000     0.0010 ha         1 3A3       0.140000
     33 H7           1.2340    -2.8340     0.0230 ha         1 3A3       0.098500
     34 H21          3.6710    -2.3610     0.0280 ha         1 3A3       0.115500
     35 H201         5.7130    -1.5110     0.9190 h1         1 3A3       0.015450
     36 H202         5.7190    -1.5220    -0.8590 h1         1 3A3       0.015450
@<TRIPOS>BOND
     1     1     2 1   
     2     2     3 1   
     3     2     4 1   
     4     4     5 1   
     5     4    26 1   
     6     4    27 1   
     7     5     6 1   
     8     6     7 ar  
     9     6     8 ar  
    10     7    11 ar  
    11     7    28 1   
    12     8     9 ar  
    13     8    29 1   
    14     9    10 ar  
    15     9    30 1   
    16    10    11 ar  
    17    10    17 1   
    18    11    12 1   
    19    12    13 2   
    20    12    15 1   
    21    13    14 1   
    22    14    31 1   
    23    15    16 ar  
    24    15    17 ar  
    25    16    20 ar  
    26    16    32 1   
    27    17    18 ar  
    28    18    19 ar  
    29    18    33 1   
    30    19    20 ar  
    31    19    34 1   
    32    20    21 1   
    33    21    22 1   
    34    22    23 1   
    35    22    35 1   
    36    22    36 1   
    37    23    24 1   
    38    23    25 1   
@<TRIPOS>SUBSTRUCTURE
     1 3A3         1 TEMP              0 ****  ****    0 ROOT
