@<TRIPOS>MOLECULE
3A3
   36    38     1     0     0
SMALL
bcc


@<TRIPOS>ATOM
      1 O24         -8.1210    -0.8910    -0.0450 o          1 3A3      -0.823800
      2 C11         -7.1890    -0.0640    -0.0440 c          1 3A3       0.939600
      3 O14         -7.2630     1.1730    -0.0680 o          1 3A3      -0.823800
      4 C19         -5.7960    -0.7150    -0.0100 c3         1 3A3      -0.016600
      5 O17         -4.7820     0.2720    -0.0110 os         1 3A3      -0.276400
      6 C15         -3.4950    -0.1110    -0.0010 ca         1 3A3       0.155600
      7 C10         -2.5530     0.9260    -0.0040 ca         1 3A3      -0.125500
      8 C22         -3.0670    -1.4410     0.0110 ca         1 3A3      -0.231000
      9 C8          -1.7080    -1.7490     0.0170 ca         1 3A3      -0.084000
     10 C4          -0.7770    -0.7290     0.0120 cp         1 3A3      -0.076000
     11 C3          -1.2140     0.6030     0.0020 ca         1 3A3      -0.129900
     12 C1          -0.0290     1.4790    -0.0010 cc         1 3A3       0.487500
     13 N6          -0.1590     2.7470    -0.0080 n2         1 3A3      -0.434200
     14 O23          1.0090     3.4220    -0.0100 oh         1 3A3      -0.362500
     15 C2           1.1520     0.5950     0.0060 ca         1 3A3      -0.129900
     16 C9           2.5050     0.8720     0.0050 ca         1 3A3      -0.125500
     17 C5           0.6850    -0.7350     0.0140 cp         1 3A3      -0.076000
     18 C7           1.5880    -1.7780     0.0200 ca         1 3A3      -0.084000
     19 C21          2.9560    -1.5090     0.0180 ca         1 3A3      -0.231000
     20 C16          3.4180    -0.1930     0.0110 ca         1 3A3       0.155600
     21 O18          4.7150     0.1580     0.0090 os         1 3A3      -0.276400
     22 C20          5.7020    -0.8560     0.0160 c3         1 3A3      -0.016600
     23 C12          7.1120    -0.2420     0.0240 c          1 3A3       0.939600
     24 O25          8.0220    -1.0940     0.0200 o          1 3A3      -0.823800
     25 O13          7.2190     0.9920     0.0340 o          1 3A3      -0.823800
     26 H191        -5.6920    -1.3790    -0.8770 h1         1 3A3       0.015450
     27 H192        -5.7210    -1.3460     0.8850 h1         1 3A3       0.015450
     28 H10         -2.8860     1.9570    -0.0130 ha         1 3A3       0.158000
     29 H22         -3.7780    -2.2540     0.0160 ha         1 3A3       0.133500
     30 H8          -1.4020    -2.7880     0.0250 ha         1 3A3       0.116500
     31 H23          0.7530     4.3510    -0.0170 ho         1 3A3       0.416000
     32 H9           2.8860     1.8830    -0.0000 ha         1 3A3       0.158000
     33 H7           1.2520    -2.8080     0.0270 ha         1 3A3       0.116500
     34 H21          3.6440    -2.3420     0.0210 ha         1 3A3       0.133500
     35 H201         5.5900    -1.5000     0.8980 h1         1 3A3       0.015450
     36 H202         5.5990    -1.5020    -0.8650 h1         1 3A3       0.015450
@<TRIPOS>BOND
     1     1     2 1   
     2     2     3 1   
     3     2     4 1   
     4     4     5 1   
     5     4    26 1   
     6     4    27 1   
     7     5     6 1   
     8     6     7 ar  
     9     6     8 ar  
    10     7    11 ar  
    11     7    28 1   
    12     8     9 ar  
    13     8    29 1   
    14     9    10 ar  
    15     9    30 1   
    16    10    11 ar  
    17    10    17 1   
    18    11    12 1   
    19    12    13 2   
    20    12    15 1   
    21    13    14 1   
    22    14    31 1   
    23    15    16 ar  
    24    15    17 ar  
    25    16    20 ar  
    26    16    32 1   
    27    17    18 ar  
    28    18    19 ar  
    29    18    33 1   
    30    19    20 ar  
    31    19    34 1   
    32    20    21 1   
    33    21    22 1   
    34    22    23 1   
    35    22    35 1   
    36    22    36 1   
    37    23    24 1   
    38    23    25 1   
@<TRIPOS>SUBSTRUCTURE
     1 3A3         1 TEMP              0 ****  ****    0 ROOT
