@<TRIPOS>MOLECULE
3A4
   69    73     1     0     0
SMALL
No Charge or Current Charge


@<TRIPOS>ATOM
      1 O1          -4.6480    -0.4710    -3.3580 o          1 3A4      -0.505100
      2 C24         -4.7690    -1.5070    -2.7080 c          1 3A4       0.538900
      3 C23         -4.5350    -1.6120    -1.1660 c3         1 3A4       0.053500
      4 C25         -5.8950    -1.8220    -0.4410 c3         1 3A4       0.011900
      5 C26         -5.7730    -2.2270     1.0110 cc         1 3A4      -0.212300
      6 N3          -4.8270    -1.7420     1.8820 na         1 3A4      -0.285500
      7 C28         -5.0210    -2.3320     3.1040 cc         1 3A4       0.387400
      8 N2          -6.0470    -3.1710     3.0490 nd         1 3A4      -0.677000
      9 C27         -6.5180    -3.1120     1.7500 cd         1 3A4       0.230900
     10 N1          -3.7830    -0.4490    -0.5660 n7         1 3A4      -0.891400
     11 C22         -2.3440    -0.3530    -0.9270 c3         1 3A4       0.160800
     12 C21         -1.6230     0.8510    -0.2300 c6         1 3A4       0.103700
     13 C20         -2.0830     2.2240    -0.7950 c6         1 3A4      -0.098400
     14 C19         -1.4980     3.3870     0.0470 c6         1 3A4      -0.057700
     15 C18         -1.9050     4.7730    -0.5210 c6         1 3A4      -0.069400
     16 C17         -1.3070     5.9210     0.3300 c6         1 3A4      -0.074400
     17 C16          0.2330     5.7930     0.4470 c6         1 3A4      -0.073400
     18 C15          0.6430     4.4040     0.9980 c6         1 3A4      -0.068400
     19 C14          0.0490     3.2620     0.1310 c6         1 3A4      -0.091700
     20 C13          0.4530     1.8650     0.6700 c6         1 3A4       0.094000
     21 N           -0.1250     0.7810    -0.1740 n          1 3A4      -0.387800
     22 C            0.6720     0.1420    -1.1590 c          1 3A4       0.607700
     23 O            0.2260    -0.1420    -2.2630 o          1 3A4      -0.586100
     24 C1           2.0850    -0.2610    -0.7860 ca         1 3A4      -0.146600
     25 C12          2.4430    -0.5760     0.5440 ca         1 3A4      -0.074000
     26 C11          3.7550    -0.9670     0.8590 ca         1 3A4      -0.110500
     27 C4           4.7520    -1.0710    -0.1420 cp         1 3A4      -0.013000
     28 C3           4.3750    -0.7770    -1.4750 ca         1 3A4      -0.110500
     29 C2           3.0640    -0.3860    -1.7940 ca         1 3A4      -0.074000
     30 C5           6.1510    -1.4880     0.1970 cp         1 3A4      -0.042000
     31 C10          6.9200    -2.2760    -0.6980 ca         1 3A4      -0.097000
     32 C9           8.2320    -2.6660    -0.3790 ca         1 3A4      -0.111500
     33 C8           8.8050    -2.2760     0.8420 ca         1 3A4      -0.103000
     34 C7           8.0640    -1.4960     1.7430 ca         1 3A4      -0.111500
     35 C6           6.7520    -1.1060     1.4240 ca         1 3A4      -0.097000
     36 H1          -5.0600    -2.4590    -3.2050 h4         1 3A4      -0.006800
     37 H2          -3.9600    -2.5380    -1.0250 h1         1 3A4       0.087700
     38 H3          -6.4910    -0.9050    -0.5180 hc         1 3A4       0.059200
     39 H4          -6.4610    -2.5970    -0.9730 hc         1 3A4       0.059200
     40 H5          -4.0980    -1.0760     1.6470 hn         1 3A4       0.372000
     41 H6          -4.3990    -2.1190     3.9660 h5         1 3A4       0.052100
     42 H8          -7.3640    -3.7050     1.4230 h4         1 3A4       0.033100
     43 H9          -4.2460     0.4200    -0.8650 hn         1 3A4       0.426000
     44 H11         -1.8250    -1.2730    -0.6260 h1         1 3A4       0.064700
     45 H12         -2.2310    -0.2490    -2.0140 h1         1 3A4       0.064700
     46 H13         -1.9600     0.8090     0.8160 h1         1 3A4       0.050700
     47 H14         -1.7650     2.3160    -1.8430 hc         1 3A4       0.055200
     48 H15         -3.1800     2.2880    -0.7920 hc         1 3A4       0.055200
     49 H16         -1.9090     3.3050     1.0640 hc         1 3A4       0.042700
     50 H17         -1.5620     4.8690    -1.5610 hc         1 3A4       0.042200
     51 H18         -3.0000     4.8640    -0.5430 hc         1 3A4       0.042200
     52 H19         -1.5670     6.8910    -0.1160 hc         1 3A4       0.040200
     53 H20         -1.7550     5.9090     1.3330 hc         1 3A4       0.040200
     54 H21          0.6920     5.9490    -0.5390 hc         1 3A4       0.041200
     55 H22          0.6240     6.5840     1.1020 hc         1 3A4       0.041200
     56 H23          1.7390     4.3280     1.0220 hc         1 3A4       0.040700
     57 H24          0.3000     4.3040     2.0380 hc         1 3A4       0.040700
     58 H25          0.4620     3.3580    -0.8840 hc         1 3A4       0.056700
     59 H26          1.5490     1.8090     0.6910 h1         1 3A4       0.059200
     60 H27          0.0990     1.7460     1.7040 h1         1 3A4       0.059200
     61 H28          1.7010    -0.5380     1.3400 ha         1 3A4       0.124500
     62 H29          3.9950    -1.2110     1.8900 ha         1 3A4       0.118500
     63 H30          5.1110    -0.8400    -2.2730 ha         1 3A4       0.118500
     64 H31          2.8120    -0.1660    -2.8290 ha         1 3A4       0.124500
     65 H32          6.4910    -2.6010    -1.6420 ha         1 3A4       0.114500
     66 H33          8.8030    -3.2740    -1.0780 ha         1 3A4       0.114000
     67 H34          9.8210    -2.5780     1.0890 ha         1 3A4       0.114000
     68 H35          8.5070    -1.1900     2.6890 ha         1 3A4       0.114000
     69 H36          6.2010    -0.4910     2.1310 ha         1 3A4       0.114500
@<TRIPOS>BOND
     1     1     2 2   
     2     2     3 1   
     3     2    36 1   
     4     3     4 1   
     5     3    10 1   
     6     3    37 1   
     7     4     5 1   
     8     4    38 1   
     9     4    39 1   
    10     5     6 1   
    11     5     9 2   
    12     6     7 1   
    13     6    40 1   
    14     7     8 2   
    15     7    41 1   
    16     8     9 1   
    17     9    42 1   
    18    10    11 1   
    19    10    43 1   
    20    11    12 1   
    21    11    44 1   
    22    11    45 1   
    23    12    13 1   
    24    12    21 1   
    25    12    46 1   
    26    13    14 1   
    27    13    47 1   
    28    13    48 1   
    29    14    15 1   
    30    14    19 1   
    31    14    49 1   
    32    15    16 1   
    33    15    50 1   
    34    15    51 1   
    35    16    17 1   
    36    16    52 1   
    37    16    53 1   
    38    17    18 1   
    39    17    54 1   
    40    17    55 1   
    41    18    19 1   
    42    18    56 1   
    43    18    57 1   
    44    19    20 1   
    45    19    58 1   
    46    20    21 1   
    47    20    59 1   
    48    20    60 1   
    49    21    22 1   
    50    22    23 2   
    51    22    24 1   
    52    24    25 ar  
    53    24    29 ar  
    54    25    26 ar  
    55    25    61 1   
    56    26    27 ar  
    57    26    62 1   
    58    27    28 ar  
    59    27    30 1   
    60    28    29 ar  
    61    28    63 1   
    62    29    64 1   
    63    30    31 ar  
    64    30    35 ar  
    65    31    32 ar  
    66    31    65 1   
    67    32    33 ar  
    68    32    66 1   
    69    33    34 ar  
    70    33    67 1   
    71    34    35 ar  
    72    34    68 1   
    73    35    69 1   
@<TRIPOS>SUBSTRUCTURE
     1 3A4         1 TEMP              0 ****  ****    0 ROOT
