@<TRIPOS>MOLECULE
3A4
   69    73     1     0     0
SMALL
bcc


@<TRIPOS>ATOM
      1 O1          -4.4450    -1.3350    -3.4610 o          1 3A4      -0.505100
      2 C24         -4.6760    -2.0810    -2.5430 c          1 3A4       0.538900
      3 C23         -4.4740    -1.7350    -1.0850 c3         1 3A4       0.053500
      4 C25         -5.8570    -1.7470    -0.4060 c3         1 3A4       0.011900
      5 C26         -5.7790    -1.7140     1.0790 cc         1 3A4      -0.226900
      6 N3          -5.0270    -0.8080     1.7700 na         1 3A4      -0.285900
      7 C28         -5.1910    -1.0470     3.0850 cc         1 3A4       0.387400
      8 N2          -6.0100    -2.0470     3.2910 nd         1 3A4      -0.677000
      9 C27         -6.3820    -2.4720     2.0460 cd         1 3A4       0.296200
     10 N1          -3.7860    -0.4910    -0.8340 n7         1 3A4      -0.836200
     11 C22         -2.3600    -0.5060    -1.1470 c3         1 3A4       0.160800
     12 C21         -1.6770     0.6390    -0.4000 c6         1 3A4       0.103700
     13 C20         -1.9610     2.0230    -0.9780 c6         1 3A4      -0.098400
     14 C19         -1.4180     3.1130    -0.0570 c6         1 3A4      -0.057700
     15 C18         -1.5970     4.5170    -0.6270 c6         1 3A4      -0.069400
     16 C17         -1.0860     5.5750     0.3460 c6         1 3A4      -0.074400
     17 C16          0.3640     5.3160     0.7440 c6         1 3A4      -0.073400
     18 C15          0.5560     3.9030     1.2860 c6         1 3A4      -0.068400
     19 C14          0.0490     2.8610     0.2960 c6         1 3A4      -0.091700
     20 C13          0.2520     1.4380     0.8090 c6         1 3A4       0.094000
     21 N           -0.2350     0.4750    -0.1770 n          1 3A4      -0.454800
     22 C            0.5900    -0.0090    -1.1370 c          1 3A4       0.674700
     23 O            0.2300    -0.3020    -2.2680 o          1 3A4      -0.586100
     24 C1           2.0140    -0.2610    -0.7510 ca         1 3A4      -0.146600
     25 C12          2.3430    -0.9590     0.4080 ca         1 3A4      -0.092000
     26 C11          3.6610    -1.2820     0.6820 ca         1 3A4      -0.128500
     27 C4           4.6890    -0.9000    -0.1830 cp         1 3A4      -0.013000
     28 C3           4.3490    -0.1960    -1.3400 ca         1 3A4      -0.128500
     29 C2           3.0290     0.1050    -1.6290 ca         1 3A4      -0.092000
     30 C5           6.0940    -1.2390     0.1160 cp         1 3A4      -0.042000
     31 C10          6.9870    -1.5520    -0.9110 ca         1 3A4      -0.115000
     32 C9           8.3070    -1.8730    -0.6310 ca         1 3A4      -0.129500
     33 C8           8.7600    -1.8890     0.6820 ca         1 3A4      -0.121000
     34 C7           7.8810    -1.5810     1.7120 ca         1 3A4      -0.129500
     35 C6           6.5610    -1.2590     1.4320 ca         1 3A4      -0.115000
     36 H1          -5.0840    -3.0930    -2.7190 h4         1 3A4      -0.006800
     37 H2          -3.8890    -2.5570    -0.6530 h1         1 3A4       0.087700
     38 H3          -6.4350    -0.8960    -0.7830 hc         1 3A4       0.059200
     39 H4          -6.4050    -2.6450    -0.7000 hc         1 3A4       0.059200
     40 H5          -4.4060    -0.1470     1.3200 hn         1 3A4       0.321700
     41 H6          -4.6910    -0.4680     3.8460 h5         1 3A4       0.052100
     42 H8          -7.0640    -3.2980     1.9030 h4         1 3A4       0.033100
     43 H9          -4.2460     0.2540    -1.3460 hn         1 3A4       0.370800
     44 H11         -1.9520    -1.4540    -0.7870 h1         1 3A4       0.064700
     45 H12         -2.1700    -0.4510    -2.2180 h1         1 3A4       0.064700
     46 H13         -2.1040     0.6080     0.6100 h1         1 3A4       0.050700
     47 H14         -1.5190     2.1020    -1.9770 hc         1 3A4       0.055200
     48 H15         -3.0390     2.1620    -1.0990 hc         1 3A4       0.055200
     49 H16         -1.9940     3.0630     0.8790 hc         1 3A4       0.042700
     50 H17         -1.0540     4.5950    -1.5760 hc         1 3A4       0.042200
     51 H18         -2.6510     4.6930    -0.8570 hc         1 3A4       0.042200
     52 H19         -1.1830     6.5720    -0.0920 hc         1 3A4       0.040200
     53 H20         -1.7140     5.5680     1.2430 hc         1 3A4       0.040200
     54 H21          1.0090     5.4540    -0.1300 hc         1 3A4       0.041200
     55 H22          0.6900     6.0490     1.4860 hc         1 3A4       0.041200
     56 H23          1.6140     3.7250     1.5050 hc         1 3A4       0.040700
     57 H24          0.0200     3.7950     2.2370 hc         1 3A4       0.040700
     58 H25          0.6430     2.9530    -0.6250 hc         1 3A4       0.056700
     59 H26          1.3050     1.2690     1.0230 h1         1 3A4       0.059200
     60 H27         -0.2930     1.2820     1.7450 h1         1 3A4       0.059200
     61 H28          1.5640    -1.2690     1.0930 ha         1 3A4       0.142500
     62 H29          3.8880    -1.8550     1.5710 ha         1 3A4       0.136500
     63 H30          5.1260     0.1320    -2.0200 ha         1 3A4       0.136500
     64 H31          2.7910     0.6440    -2.5370 ha         1 3A4       0.142500
     65 H32          6.6460    -1.5650    -1.9380 ha         1 3A4       0.132500
     66 H33          8.9810    -2.1180    -1.4420 ha         1 3A4       0.132000
     67 H34          9.7900    -2.1400     0.9010 ha         1 3A4       0.132000
     68 H35          8.2240    -1.5850     2.7390 ha         1 3A4       0.132000
     69 H36          5.8950    -1.0030     2.2460 ha         1 3A4       0.132500
@<TRIPOS>BOND
     1     1     2 2   
     2     2     3 1   
     3     2    36 1   
     4     3     4 1   
     5     3    10 1   
     6     3    37 1   
     7     4     5 1   
     8     4    38 1   
     9     4    39 1   
    10     5     6 1   
    11     5     9 2   
    12     6     7 1   
    13     6    40 1   
    14     7     8 2   
    15     7    41 1   
    16     8     9 1   
    17     9    42 1   
    18    10    11 1   
    19    10    43 1   
    20    11    12 1   
    21    11    44 1   
    22    11    45 1   
    23    12    13 1   
    24    12    21 1   
    25    12    46 1   
    26    13    14 1   
    27    13    47 1   
    28    13    48 1   
    29    14    15 1   
    30    14    19 1   
    31    14    49 1   
    32    15    16 1   
    33    15    50 1   
    34    15    51 1   
    35    16    17 1   
    36    16    52 1   
    37    16    53 1   
    38    17    18 1   
    39    17    54 1   
    40    17    55 1   
    41    18    19 1   
    42    18    56 1   
    43    18    57 1   
    44    19    20 1   
    45    19    58 1   
    46    20    21 1   
    47    20    59 1   
    48    20    60 1   
    49    21    22 1   
    50    22    23 2   
    51    22    24 1   
    52    24    25 ar  
    53    24    29 ar  
    54    25    26 ar  
    55    25    61 1   
    56    26    27 ar  
    57    26    62 1   
    58    27    28 ar  
    59    27    30 1   
    60    28    29 ar  
    61    28    63 1   
    62    29    64 1   
    63    30    31 ar  
    64    30    35 ar  
    65    31    32 ar  
    66    31    65 1   
    67    32    33 ar  
    68    32    66 1   
    69    33    34 ar  
    70    33    67 1   
    71    34    35 ar  
    72    34    68 1   
    73    35    69 1   
@<TRIPOS>SUBSTRUCTURE
     1 3A4         1 TEMP              0 ****  ****    0 ROOT
