@<TRIPOS>MOLECULE
3A5
   24    23     1     0     0
SMALL
abcg2


@<TRIPOS>ATOM
      1 CA           0.7660    23.2170    18.5830 ce         1 3A5       0.358300
      2 CB          -0.6370    22.6950    18.4540 c3         1 3A5      -0.160400
      3 C            1.4050    23.0860    19.9840 c          1 3A5       0.633700
      4 O            2.4250    23.7530    20.2130 o          1 3A5      -0.723500
      5 O1           0.1760    26.4630    16.7580 o          1 3A5      -0.748000
      6 O2           2.1960    27.2440    16.2220 o          1 3A5      -0.748000
      7 C2           1.6850    25.0030    15.6330 c3         1 3A5      -0.186400
      8 C3           0.9960    23.8160    16.3020 c3         1 3A5       0.088500
      9 N            1.4870    23.6900    17.6540 n2         1 3A5      -0.551900
     10 C4           1.2220    22.5620    15.4730 c          1 3A5       0.581100
     11 O4           0.9000    22.4780    14.3130 o          1 3A5      -0.559000
     12 O45          1.7990    21.5760    16.1400 os         1 3A5      -0.402100
     13 C5           2.0500    20.3640    15.4310 c3         1 3A5       0.150900
     14 OXT          0.8230    22.2950    20.7530 o          1 3A5      -0.723500
     15 HB1         -1.1350    22.9980    17.5350 hc         1 3A5       0.021700
     16 HB2         -0.6260    21.6040    18.4760 hc         1 3A5       0.021700
     17 HB3         -1.2480    23.0170    19.2960 hc         1 3A5       0.021700
     18 H21C         1.3830    25.0510    14.5820 hc         1 3A5       0.023200
     19 H22C         2.7670    24.8560    15.6430 hc         1 3A5       0.023200
     20 H3          -0.0840    24.0030    16.2510 h1         1 3A5       0.069700
     21 H51          2.5090    19.6890    16.1480 h1         1 3A5       0.024367
     22 H52          1.1290    19.9200    15.0560 h1         1 3A5       0.024367
     23 H53          2.7360    20.5240    14.5980 h1         1 3A5       0.024367
     24 C1           1.3220    26.3580    16.2780 c          1 3A5       0.738000
@<TRIPOS>BOND
     1     1     2 1   
     2     1     3 1   
     3     1     9 2   
     4     2    15 1   
     5     2    16 1   
     6     2    17 1   
     7     3     4 1   
     8     3    14 1   
     9     5    24 1   
    10     6    24 1   
    11     7     8 1   
    12     7    18 1   
    13     7    19 1   
    14     7    24 1   
    15     8     9 1   
    16     8    10 1   
    17     8    20 1   
    18    10    11 2   
    19    10    12 1   
    20    12    13 1   
    21    13    21 1   
    22    13    22 1   
    23    13    23 1   
@<TRIPOS>SUBSTRUCTURE
     1 3A5         1 TEMP              0 ****  ****    0 ROOT
