@<TRIPOS>MOLECULE
3A5
   24    23     1     0     0
SMALL
No Charge or Current Charge


@<TRIPOS>ATOM
      1 CA           0.6390    23.2680    18.8260 ce         1 3A5       0.358300
      2 CB          -0.8510    22.9620    18.6190 c3         1 3A5      -0.160400
      3 C            1.2230    23.1730    20.2650 c          1 3A5       0.633700
      4 O            2.4170    23.3980    20.4570 o          1 3A5      -0.723500
      5 O1           0.4230    26.6440    15.4360 o          1 3A5      -0.748000
      6 O2           1.9600    26.7690    16.9370 o          1 3A5      -0.748000
      7 C2           1.8410    24.7610    15.6660 c3         1 3A5      -0.186400
      8 C3           0.9910    23.6960    16.4130 c3         1 3A5       0.088500
      9 N            1.4330    23.5960    17.8320 n2         1 3A5      -0.551900
     10 C4           1.0240    22.3150    15.6840 c          1 3A5       0.581100
     11 O4           0.0170    21.7210    15.3100 o          1 3A5      -0.559000
     12 O45          2.3010    21.8310    15.5270 os         1 3A5      -0.402100
     13 C5           2.4700    20.5610    14.8770 c3         1 3A5       0.150900
     14 OXT          0.4890    22.8690    21.2020 o          1 3A5      -0.723500
     15 HB1         -1.3820    23.8340    18.2210 hc         1 3A5       0.021700
     16 HB2         -0.9920    22.1330    17.9160 hc         1 3A5       0.021700
     17 HB3         -1.3640    22.6770    19.5440 hc         1 3A5       0.021700
     18 H21C         1.6340    24.5900    14.6020 hc         1 3A5       0.023200
     19 H22C         2.8910    24.5980    15.9380 hc         1 3A5       0.023200
     20 H3          -0.0540    24.0270    16.3510 h1         1 3A5       0.069700
     21 H51          3.5350    20.3030    14.8200 h1         1 3A5       0.024367
     22 H52          1.9550    19.7670    15.4330 h1         1 3A5       0.024367
     23 H53          2.0710    20.5900    13.8550 h1         1 3A5       0.024367
     24 C1           1.3750    26.1750    16.0440 c          1 3A5       0.738000
@<TRIPOS>BOND
     1     1     2 1   
     2     1     3 1   
     3     1     9 2   
     4     2    15 1   
     5     2    16 1   
     6     2    17 1   
     7     3     4 1   
     8     3    14 1   
     9     5    24 1   
    10     6    24 1   
    11     7     8 1   
    12     7    18 1   
    13     7    19 1   
    14     7    24 1   
    15     8     9 1   
    16     8    10 1   
    17     8    20 1   
    18    10    11 2   
    19    10    12 1   
    20    12    13 1   
    21    13    21 1   
    22    13    22 1   
    23    13    23 1   
@<TRIPOS>SUBSTRUCTURE
     1 3A5         1 TEMP              0 ****  ****    0 ROOT
