@<TRIPOS>MOLECULE
3A7
   59    62     1     0     0
SMALL
No Charge or Current Charge


@<TRIPOS>ATOM
      1 C1           1.4480     0.1730     0.9030 ca         1 3A7      -0.134600
      2 C2           1.4860    -0.5140    -0.3350 ca         1 3A7      -0.076000
      3 C3           2.7110    -0.9260    -0.8870 ca         1 3A7      -0.092000
      4 C4           3.9100    -0.6730    -0.2040 ca         1 3A7      -0.007900
      5 C5           3.8870    -0.0140     1.0350 ca         1 3A7      -0.092000
      6 C6           2.6630     0.4000     1.5880 ca         1 3A7      -0.076000
      7 C7          -0.8070     1.5970    -0.5960 c6         1 3A7       0.099000
      8 C18         -5.2630    -2.4970     0.0620 c          1 3A7       0.566900
      9 C17         -3.7440    -2.3390    -0.2880 c3         1 3A7       0.065500
     10 C19         -3.0510    -3.7240    -0.2810 c3         1 3A7      -0.001100
     11 C20         -1.6030    -3.6840    -0.7070 cc         1 3A7      -0.206300
     12 N3          -0.5200    -3.7510     0.1460 na         1 3A7      -0.293500
     13 C22          0.6220    -3.7310    -0.6150 cc         1 3A7       0.391400
     14 N2           0.3170    -3.6410    -1.9020 nd         1 3A7      -0.677000
     15 C21         -1.0620    -3.6140    -1.9660 cd         1 3A7       0.222900
     16 N1          -2.9650    -1.3900     0.5730 n7         1 3A7      -0.846400
     17 C16         -3.3550     0.0350     0.4940 c3         1 3A7       0.155800
     18 C15         -2.3580     0.9540     1.2670 c6         1 3A7       0.096700
     19 C14         -2.8550     2.4240     1.3540 c6         1 3A7      -0.088400
     20 C13         -2.7410     3.1570    -0.0060 c6         1 3A7      -0.058700
     21 C12         -3.1990     4.6360     0.0990 c6         1 3A7      -0.070400
     22 C11         -3.0510     5.3630    -1.2610 c6         1 3A7      -0.073400
     23 C10         -1.6000     5.2640    -1.7950 c6         1 3A7      -0.073400
     24 C9          -1.1320     3.7900    -1.8850 c6         1 3A7      -0.069400
     25 C8          -1.2760     3.0720    -0.5150 c6         1 3A7      -0.085700
     26 N           -0.9700     0.8800     0.7060 n          1 3A7      -0.407800
     27 C            0.1410     0.6040     1.5400 c          1 3A7       0.613700
     28 O            0.0290     0.6250     2.7600 o          1 3A7      -0.584100
     29 Br           5.5740    -1.2410    -0.9550 br         1 3A7      -0.097100
     30 H1           0.5670    -0.7480    -0.8670 ha         1 3A7       0.130500
     31 H2           2.7270    -1.4500    -1.8400 ha         1 3A7       0.135000
     32 H3           4.8160     0.1740     1.5680 ha         1 3A7       0.135000
     33 H4           2.6600     0.9070     2.5510 ha         1 3A7       0.130500
     34 H5          -1.3740     1.0670    -1.3740 h1         1 3A7       0.055200
     35 H6           0.2450     1.6030    -0.9100 h1         1 3A7       0.055200
     36 H7          -5.8600    -3.0350    -0.7060 h4         1 3A7      -0.019800
     37 H8          -3.7170    -1.9790    -1.3260 h1         1 3A7       0.038700
     38 H9          -3.1320    -4.1580     0.7240 hc         1 3A7       0.062700
     39 H10         -3.6010    -4.4000    -0.9480 hc         1 3A7       0.062700
     40 H11         -0.5430    -3.8240     1.1570 hn         1 3A7       0.356000
     41 H12          1.6160    -3.7780    -0.1840 h5         1 3A7       0.059100
     42 H14         -1.5870    -3.5530    -2.9120 h4         1 3A7       0.036100
     43 H15         -1.9810    -1.4520     0.2810 hn         1 3A7       0.428000
     44 H17         -3.3930     0.3580    -0.5550 h1         1 3A7       0.038700
     45 H18         -4.3580     0.1790     0.9170 h1         1 3A7       0.038700
     46 H19         -2.3530     0.5630     2.2950 h1         1 3A7       0.103700
     47 H20         -3.8930     2.4480     1.7130 hc         1 3A7       0.054700
     48 H21         -2.2580     2.9560     2.1080 hc         1 3A7       0.054700
     49 H22         -3.3970     2.6540    -0.7310 hc         1 3A7       0.045700
     50 H23         -4.2470     4.6830     0.4280 hc         1 3A7       0.041200
     51 H24         -2.6080     5.1600     0.8630 hc         1 3A7       0.041200
     52 H25         -3.7440     4.9250    -1.9920 hc         1 3A7       0.040200
     53 H26         -3.3370     6.4180    -1.1530 hc         1 3A7       0.040200
     54 H27         -1.5340     5.7370    -2.7850 hc         1 3A7       0.040700
     55 H28         -0.9250     5.8270    -1.1360 hc         1 3A7       0.040700
     56 H29         -1.7200     3.2620    -2.6490 hc         1 3A7       0.041200
     57 H30         -0.0860     3.7570    -2.2180 hc         1 3A7       0.041200
     58 H31         -0.6260     3.5870     0.2070 hc         1 3A7       0.056700
     59 O1          -5.8010    -2.0770     1.0850 o          1 3A7      -0.483100
@<TRIPOS>BOND
     1     1     2 ar  
     2     1     6 ar  
     3     1    27 1   
     4     2     3 ar  
     5     2    30 1   
     6     3     4 ar  
     7     3    31 1   
     8     4     5 ar  
     9     4    29 1   
    10     5     6 ar  
    11     5    32 1   
    12     6    33 1   
    13     7    25 1   
    14     7    26 1   
    15     7    34 1   
    16     7    35 1   
    17     8     9 1   
    18     8    36 1   
    19     8    59 2   
    20     9    10 1   
    21     9    16 1   
    22     9    37 1   
    23    10    11 1   
    24    10    38 1   
    25    10    39 1   
    26    11    12 1   
    27    11    15 2   
    28    12    13 1   
    29    12    40 1   
    30    13    14 2   
    31    13    41 1   
    32    14    15 1   
    33    15    42 1   
    34    16    17 1   
    35    16    43 1   
    36    17    18 1   
    37    17    44 1   
    38    17    45 1   
    39    18    19 1   
    40    18    26 1   
    41    18    46 1   
    42    19    20 1   
    43    19    47 1   
    44    19    48 1   
    45    20    21 1   
    46    20    25 1   
    47    20    49 1   
    48    21    22 1   
    49    21    50 1   
    50    21    51 1   
    51    22    23 1   
    52    22    52 1   
    53    22    53 1   
    54    23    24 1   
    55    23    54 1   
    56    23    55 1   
    57    24    25 1   
    58    24    56 1   
    59    24    57 1   
    60    25    58 1   
    61    26    27 1   
    62    27    28 2   
@<TRIPOS>SUBSTRUCTURE
     1 3A7         1 TEMP              0 ****  ****    0 ROOT
