@<TRIPOS>MOLECULE
3A7
   59    62     1     0     0
SMALL
bcc


@<TRIPOS>ATOM
      1 C1           1.2840     0.2530     1.0350 ca         1 3A7      -0.134600
      2 C2           1.4350    -0.6820     0.0160 ca         1 3A7      -0.094000
      3 C3           2.6930    -1.0170    -0.4590 ca         1 3A7      -0.110000
      4 C4           3.8050    -0.3960     0.0890 ca         1 3A7      -0.007900
      5 C5           3.6780     0.5380     1.1080 ca         1 3A7      -0.110000
      6 C6           2.4130     0.8450     1.5870 ca         1 3A7      -0.094000
      7 C7          -0.8680     1.4310    -0.5320 c6         1 3A7       0.099000
      8 C18         -5.0590    -2.5870     0.4500 c          1 3A7       0.566900
      9 C17         -3.6920    -2.2780    -0.1060 c3         1 3A7       0.065500
     10 C19         -2.9390    -3.6110    -0.2150 c3         1 3A7      -0.001100
     11 C20         -1.6310    -3.4780    -0.9200 cc         1 3A7      -0.220900
     12 N3          -0.5620    -4.2840    -0.6460 na         1 3A7      -0.293900
     13 C22          0.4450    -3.9420    -1.4740 cc         1 3A7       0.391400
     14 N2           0.0980    -2.9590    -2.2660 nd         1 3A7      -0.677000
     15 C21         -1.1950    -2.6610    -1.9290 cd         1 3A7       0.288200
     16 N1          -2.9620    -1.3370     0.7010 n7         1 3A7      -0.791200
     17 C16         -3.3890     0.0420     0.5600 c3         1 3A7       0.155800
     18 C15         -2.4350     0.9670     1.3130 c6         1 3A7       0.096700
     19 C14         -2.8810     2.4290     1.2930 c6         1 3A7      -0.088400
     20 C13         -2.6820     3.0980    -0.0620 c6         1 3A7      -0.058700
     21 C12         -3.0450     4.5790    -0.0330 c6         1 3A7      -0.070400
     22 C11         -2.8250     5.2330    -1.3940 c6         1 3A7      -0.073400
     23 C10         -1.3960     5.0210    -1.8870 c6         1 3A7      -0.073400
     24 C9          -1.0210     3.5420    -1.9000 c6         1 3A7      -0.069400
     25 C8          -1.2400     2.9090    -0.5300 c6         1 3A7      -0.085700
     26 N           -1.0730     0.8390     0.7870 n          1 3A7      -0.474800
     27 C           -0.0590     0.5350     1.6320 c          1 3A7       0.680700
     28 O           -0.1970     0.4280     2.8430 o          1 3A7      -0.584100
     29 BR           5.5230    -0.8290    -0.5590 br         1 3A7      -0.097100
     30 H1           0.5710    -1.1660    -0.4210 ha         1 3A7       0.148500
     31 H2           2.7860    -1.7490    -1.2510 ha         1 3A7       0.153000
     32 H3           4.5460     1.0220     1.5340 ha         1 3A7       0.153000
     33 H4           2.3150     1.5650     2.3890 ha         1 3A7       0.148500
     34 H5          -1.4720     0.8960    -1.2720 h1         1 3A7       0.055200
     35 H6           0.1680     1.3140    -0.8390 h1         1 3A7       0.055200
     36 H7          -5.6510    -3.2630    -0.1950 h4         1 3A7      -0.019800
     37 H8          -3.8850    -1.9150    -1.1350 h1         1 3A7       0.038700
     38 H9          -2.7760    -4.0070     0.7920 hc         1 3A7       0.062700
     39 H10         -3.5690    -4.3370    -0.7370 hc         1 3A7       0.062700
     40 H11         -0.5320    -5.0110     0.0520 hn         1 3A7       0.305700
     41 H12          1.4030    -4.4360    -1.4530 h5         1 3A7       0.059100
     42 H14         -1.7470    -1.8810    -2.4310 h4         1 3A7       0.036100
     43 H15         -1.9830    -1.3970     0.4460 hn         1 3A7       0.372800
     44 H17         -3.4950     0.3410    -0.4940 h1         1 3A7       0.038700
     45 H18         -4.3760     0.1680     1.0090 h1         1 3A7       0.038700
     46 H19         -2.4130     0.6260     2.3470 h1         1 3A7       0.103700
     47 H20         -3.9300     2.4870     1.5970 hc         1 3A7       0.054700
     48 H21         -2.3080     2.9750     2.0500 hc         1 3A7       0.054700
     49 H22         -3.3360     2.6110    -0.7980 hc         1 3A7       0.045700
     50 H23         -4.0850     4.7010     0.2820 hc         1 3A7       0.041200
     51 H24         -2.4300     5.0840     0.7210 hc         1 3A7       0.041200
     52 H25         -3.5260     4.8050    -2.1190 hc         1 3A7       0.040200
     53 H26         -3.0500     6.3010    -1.3400 hc         1 3A7       0.040200
     54 H27         -1.2700     5.4470    -2.8850 hc         1 3A7       0.040700
     55 H28         -0.7040     5.5590    -1.2310 hc         1 3A7       0.040700
     56 H29         -1.6270     3.0150    -2.6460 hc         1 3A7       0.041200
     57 H30          0.0220     3.4200    -2.2070 hc         1 3A7       0.041200
     58 H31         -0.5780     3.4110     0.1910 hc         1 3A7       0.056700
     59 O1          -5.5040    -2.1650     1.4840 o          1 3A7      -0.483100
@<TRIPOS>BOND
     1     1     2 ar  
     2     1     6 ar  
     3     1    27 1   
     4     2     3 ar  
     5     2    30 1   
     6     3     4 ar  
     7     3    31 1   
     8     4     5 ar  
     9     4    29 1   
    10     5     6 ar  
    11     5    32 1   
    12     6    33 1   
    13     7    25 1   
    14     7    26 1   
    15     7    34 1   
    16     7    35 1   
    17     8     9 1   
    18     8    36 1   
    19     8    59 2   
    20     9    10 1   
    21     9    16 1   
    22     9    37 1   
    23    10    11 1   
    24    10    38 1   
    25    10    39 1   
    26    11    12 1   
    27    11    15 2   
    28    12    13 1   
    29    12    40 1   
    30    13    14 2   
    31    13    41 1   
    32    14    15 1   
    33    15    42 1   
    34    16    17 1   
    35    16    43 1   
    36    17    18 1   
    37    17    44 1   
    38    17    45 1   
    39    18    19 1   
    40    18    26 1   
    41    18    46 1   
    42    19    20 1   
    43    19    47 1   
    44    19    48 1   
    45    20    21 1   
    46    20    25 1   
    47    20    49 1   
    48    21    22 1   
    49    21    50 1   
    50    21    51 1   
    51    22    23 1   
    52    22    52 1   
    53    22    53 1   
    54    23    24 1   
    55    23    54 1   
    56    23    55 1   
    57    24    25 1   
    58    24    56 1   
    59    24    57 1   
    60    25    58 1   
    61    26    27 1   
    62    27    28 2   
@<TRIPOS>SUBSTRUCTURE
     1 3A7         1 TEMP              0 ****  ****    0 ROOT
