@<TRIPOS>MOLECULE
3A8
   35    38     1     0     0
SMALL
bcc


@<TRIPOS>ATOM
      1 CAJ          1.5120     1.2830    -0.7470 ca         1 3A8      -0.065500
      2 CAH          1.5030     2.5790    -1.2260 ca         1 3A8      -0.197000
      3 CAP          1.1520     3.6330    -0.3800 ca         1 3A8       0.152100
      4 OAB          1.1570     4.8770    -0.8950 oh         1 3A8      -0.490100
      5 CAI          0.8150     3.3650     0.9430 ca         1 3A8      -0.197000
      6 CAK          0.8320     2.0570     1.4080 ca         1 3A8      -0.065500
      7 CAR          1.1750     1.0020     0.5750 ca         1 3A8      -0.147300
      8 CAV          1.1910    -0.4150     1.0950 c5         1 3A8       0.258300
      9 CAU          0.4180    -1.3930     0.2650 cc         1 3A8      -0.263600
     10 NAM          2.5220    -1.0200     1.0300 ns         1 3A8      -0.581900
     11 CAO          2.6260    -2.1680     0.3160 c          1 3A8       0.755100
     12 OAA          3.6220    -2.8430     0.1350 o          1 3A8      -0.610500
     13 CAT          1.2520    -2.3770    -0.1710 cd         1 3A8      -0.186900
     14 NAN          0.5390    -3.2080    -0.9390 na         1 3A8       0.058400
     15 NAL         -0.7220    -2.8120    -1.0250 nd         1 3A8      -0.508800
     16 CAS         -0.8330    -1.6980    -0.3020 cc         1 3A8       0.409800
     17 CAQ         -2.1070    -0.9850    -0.2000 ca         1 3A8      -0.119500
     18 CAF         -3.1620    -1.2700    -1.0690 ca         1 3A8      -0.103000
     19 CAD         -4.3630    -0.5860    -0.9670 ca         1 3A8      -0.134000
     20 CAC         -4.5320     0.3950     0.0040 ca         1 3A8      -0.119000
     21 CAE         -3.4900     0.6830     0.8730 ca         1 3A8      -0.134000
     22 CAG         -2.2880    -0.0030     0.7730 ca         1 3A8      -0.103000
     23 H1           1.7850     0.4790    -1.4210 ha         1 3A8       0.135000
     24 H2           1.7660     2.7840    -2.2560 ha         1 3A8       0.142000
     25 H3           0.9080     5.5210    -0.2230 ho         1 3A8       0.427000
     26 H4           0.5430     4.1720     1.6140 ha         1 3A8       0.142000
     27 H5           0.5720     1.8650     2.4420 ha         1 3A8       0.135000
     28 H6           0.8450    -0.4150     2.1340 h1         1 3A8       0.070700
     29 H7           3.3080    -0.6180     1.5180 hn         1 3A8       0.336500
     30 H8           0.8380    -4.0440    -1.4170 hn         1 3A8       0.340700
     31 H9          -3.0390    -2.0260    -1.8330 ha         1 3A8       0.137000
     32 H10         -5.1690    -0.8170    -1.6500 ha         1 3A8       0.130500
     33 H11         -5.4700     0.9290     0.0800 ha         1 3A8       0.130000
     34 H12         -3.6090     1.4420     1.6350 ha         1 3A8       0.130500
     35 H13         -1.4940     0.2280     1.4710 ha         1 3A8       0.137000
@<TRIPOS>BOND
     1     1     2 ar  
     2     1     7 ar  
     3     1    23 1   
     4     2     3 ar  
     5     2    24 1   
     6     3     4 1   
     7     3     5 ar  
     8     4    25 1   
     9     5     6 ar  
    10     5    26 1   
    11     6     7 ar  
    12     6    27 1   
    13     7     8 1   
    14     8     9 1   
    15     8    10 1   
    16     8    28 1   
    17     9    13 2   
    18     9    16 1   
    19    10    11 1   
    20    10    29 1   
    21    11    12 2   
    22    11    13 1   
    23    13    14 1   
    24    14    15 1   
    25    14    30 1   
    26    15    16 2   
    27    16    17 1   
    28    17    18 ar  
    29    17    22 ar  
    30    18    19 ar  
    31    18    31 1   
    32    19    20 ar  
    33    19    32 1   
    34    20    21 ar  
    35    20    33 1   
    36    21    22 ar  
    37    21    34 1   
    38    22    35 1   
@<TRIPOS>SUBSTRUCTURE
     1 3A8         1 TEMP              0 ****  ****    0 ROOT
