@<TRIPOS>MOLECULE
3A8
   35    38     1     0     0
SMALL
No Charge or Current Charge


@<TRIPOS>ATOM
      1 CAJ          1.5070     1.0950    -0.7330 ca         1 3A8      -0.047500
      2 CAH          1.4500     2.3750    -1.3110 ca         1 3A8      -0.179000
      3 CAP          0.9660     3.4610    -0.5700 ca         1 3A8       0.152100
      4 OAB          0.9150     4.6980    -1.1400 oh         1 3A8      -0.529100
      5 CAI          0.5440     3.2720     0.7540 ca         1 3A8      -0.179000
      6 CAK          0.6010     1.9930     1.3340 ca         1 3A8      -0.047500
      7 CAR          1.0700     0.8860     0.5950 ca         1 3A8      -0.147300
      8 CAV          1.1240    -0.4960     1.2550 c5         1 3A8       0.258300
      9 CAU          0.5410    -1.4580     0.2540 cc         1 3A8      -0.198300
     10 NAM          2.4920    -1.1150     1.2790 ns         1 3A8      -0.514900
     11 CAO          2.6700    -2.1920     0.4210 c          1 3A8       0.612600
     12 OAA          3.6950    -2.8300     0.2480 o          1 3A8      -0.535000
     13 CAT          1.3820    -2.3510    -0.2030 cd         1 3A8      -0.237600
     14 NAN          0.6980    -3.0900    -1.1560 na         1 3A8       0.058800
     15 NAL         -0.6230    -2.6010    -1.2800 nd         1 3A8      -0.508800
     16 CAS         -0.7000    -1.5890    -0.4060 cc         1 3A8       0.344500
     17 CAQ         -1.9540    -0.8320    -0.1960 ca         1 3A8      -0.119500
     18 CAF         -3.0270    -0.9820    -1.1090 ca         1 3A8      -0.085000
     19 CAD         -4.2360    -0.2880    -0.9290 ca         1 3A8      -0.116000
     20 CAC         -4.4060     0.5570     0.1770 ca         1 3A8      -0.101000
     21 CAE         -3.3660     0.6970     1.1070 ca         1 3A8      -0.116000
     22 CAG         -2.1570     0.0040     0.9280 ca         1 3A8      -0.085000
     23 H1           1.8930     0.2670    -1.3230 ha         1 3A8       0.117000
     24 H2           1.7840     2.5230    -2.3340 ha         1 3A8       0.124000
     25 H3           0.5550     5.3280    -0.4800 ho         1 3A8       0.466000
     26 H4           0.1720     4.1090     1.3400 ha         1 3A8       0.124000
     27 H5           0.2750     1.8620     2.3640 ha         1 3A8       0.117000
     28 H6           0.6180    -0.5460     2.2300 h1         1 3A8       0.070700
     29 H7           3.2760    -0.7930     1.8300 hn         1 3A8       0.336500
     30 H8           1.0530    -3.8670    -1.7140 hn         1 3A8       0.391000
     31 H9          -2.9250    -1.6280    -1.9770 ha         1 3A8       0.119000
     32 H10         -5.0430    -0.4090    -1.6480 ha         1 3A8       0.112500
     33 H11         -5.3420     1.0920     0.3180 ha         1 3A8       0.112000
     34 H12         -3.5000     1.3370     1.9770 ha         1 3A8       0.112500
     35 H13         -1.3970     0.1090     1.6900 ha         1 3A8       0.119000
@<TRIPOS>BOND
     1     1     2 ar  
     2     1     7 ar  
     3     1    23 1   
     4     2     3 ar  
     5     2    24 1   
     6     3     4 1   
     7     3     5 ar  
     8     4    25 1   
     9     5     6 ar  
    10     5    26 1   
    11     6     7 ar  
    12     6    27 1   
    13     7     8 1   
    14     8     9 1   
    15     8    10 1   
    16     8    28 1   
    17     9    13 2   
    18     9    16 1   
    19    10    11 1   
    20    10    29 1   
    21    11    12 2   
    22    11    13 1   
    23    13    14 1   
    24    14    15 1   
    25    14    30 1   
    26    15    16 2   
    27    16    17 1   
    28    17    18 ar  
    29    17    22 ar  
    30    18    19 ar  
    31    18    31 1   
    32    19    20 ar  
    33    19    32 1   
    34    20    21 ar  
    35    20    33 1   
    36    21    22 ar  
    37    21    34 1   
    38    22    35 1   
@<TRIPOS>SUBSTRUCTURE
     1 3A8         1 TEMP              0 ****  ****    0 ROOT
