@<TRIPOS>MOLECULE
3A9
   19    20     1     0     0
SMALL
abcg2


@<TRIPOS>ATOM
      1 C1          -2.6790     0.2260    -0.0350 c          1 3A9       0.714600
      2 O1          -3.4680    -0.7410    -0.0340 o          1 3A9      -0.724500
      3 C2          -1.1940    -0.0970    -0.0160 ca         1 3A9      -0.163600
      4 O2          -2.9890     1.4340    -0.0500 o          1 3A9      -0.724500
      5 C3          -0.7490    -1.4180     0.0090 ca         1 3A9      -0.059000
      6 O3           2.8530    -0.8400     0.0350 os         1 3A9      -0.355100
      7 C4           0.6040    -1.7440     0.0300 ca         1 3A9      -0.169000
      8 C5           1.5120    -0.7000     0.0220 ca         1 3A9       0.089100
      9 C6           3.4330     0.4650     0.2310 c5         1 3A9       0.151600
     10 C7           2.3270     1.4910    -0.0630 c5         1 3A9      -0.044100
     11 C8           1.1000     0.6260    -0.0060 ca         1 3A9      -0.205300
     12 C9          -0.2450     0.9310    -0.0270 ca         1 3A9      -0.033000
     13 H3          -1.4790    -2.2160     0.0160 ha         1 3A9       0.128000
     14 H4           0.9310    -2.7760     0.0530 ha         1 3A9       0.102000
     15 H6A          3.7760     0.5380     1.2660 h1         1 3A9       0.035200
     16 H6B          4.2950     0.5580    -0.4270 h1         1 3A9       0.035200
     17 H7A          2.3230     2.2970     0.6710 hc         1 3A9       0.046200
     18 H7B          2.4430     1.9460    -1.0490 hc         1 3A9       0.046200
     19 H9          -0.5750     1.9620    -0.0520 ha         1 3A9       0.129000
@<TRIPOS>BOND
     1     1     2 1   
     2     1     3 1   
     3     1     4 1   
     4     3     5 ar  
     5     3    12 ar  
     6     5     7 ar  
     7     5    13 1   
     8     6     8 1   
     9     6     9 1   
    10     7     8 ar  
    11     7    14 1   
    12     8    11 ar  
    13     9    10 1   
    14     9    15 1   
    15     9    16 1   
    16    10    11 1   
    17    10    17 1   
    18    10    18 1   
    19    11    12 ar  
    20    12    19 1   
@<TRIPOS>SUBSTRUCTURE
     1 3A9         1 TEMP              0 ****  ****    0 ROOT
