@<TRIPOS>MOLECULE
3A9
   19    20     1     0     0
SMALL
No Charge or Current Charge


@<TRIPOS>ATOM
      1 C1          -2.6830     0.2420    -0.0220 c          1 3A9       0.714600
      2 O1          -3.4920    -0.6750    -0.0020 o          1 3A9      -0.724500
      3 C2          -1.2030    -0.0940    -0.0120 ca         1 3A9      -0.163600
      4 O2          -3.0170     1.4180    -0.0480 o          1 3A9      -0.724500
      5 C3          -0.7670    -1.4470     0.0180 ca         1 3A9      -0.059000
      6 O3           2.8890    -0.8830    -0.0020 os         1 3A9      -0.355100
      7 C4           0.6080    -1.7610     0.0240 ca         1 3A9      -0.169000
      8 C5           1.5340    -0.7140     0.0080 ca         1 3A9       0.089100
      9 C6           3.4360     0.4590     0.2340 c5         1 3A9       0.151600
     10 C7           2.3100     1.5150    -0.0780 c5         1 3A9      -0.044100
     11 C8           1.1310     0.5980    -0.0280 ca         1 3A9      -0.205300
     12 C9          -0.2310     0.9380    -0.0390 ca         1 3A9      -0.033000
     13 H3          -1.4910    -2.2590     0.0340 ha         1 3A9       0.128000
     14 H4           0.9420    -2.7950     0.0430 ha         1 3A9       0.102000
     15 H6A          3.7300     0.5200     1.2910 h1         1 3A9       0.035200
     16 H6B          4.3360     0.6070    -0.3770 h1         1 3A9       0.035200
     17 H7A          2.2720     2.3160     0.6690 hc         1 3A9       0.046200
     18 H7B          2.4400     1.9710    -1.0660 hc         1 3A9       0.046200
     19 H9          -0.5260     1.9850    -0.0720 ha         1 3A9       0.129000
@<TRIPOS>BOND
     1     1     2 1   
     2     1     3 1   
     3     1     4 1   
     4     3     5 ar  
     5     3    12 ar  
     6     5     7 ar  
     7     5    13 1   
     8     6     8 1   
     9     6     9 1   
    10     7     8 ar  
    11     7    14 1   
    12     8    11 ar  
    13     9    10 1   
    14     9    15 1   
    15     9    16 1   
    16    10    11 1   
    17    10    17 1   
    18    10    18 1   
    19    11    12 ar  
    20    12    19 1   
@<TRIPOS>SUBSTRUCTURE
     1 3A9         1 TEMP              0 ****  ****    0 ROOT
