@<TRIPOS>MOLECULE
3AB
   18    18     1     0     0
SMALL
bcc


@<TRIPOS>ATOM
      1 N3           2.7730    -1.4240    -0.2710 nv         1 3AB      -0.826200
      2 C3           1.7930    -0.4700    -0.1060 ca         1 3AB       0.147600
      3 C2           0.4460    -0.8380    -0.0360 ca         1 3AB      -0.144000
      4 C4           2.1170     0.8910    -0.0470 ca         1 3AB      -0.181000
      5 C5           1.1170     1.8410     0.0720 ca         1 3AB      -0.097000
      6 C6          -0.2200     1.4730     0.1280 ca         1 3AB      -0.155000
      7 C1          -0.5540     0.1210     0.0660 ca         1 3AB      -0.109600
      8 C7          -1.9690    -0.3670     0.1350 c          1 3AB       0.683700
      9 O1          -2.2280    -1.5180     0.4620 o          1 3AB      -0.609100
     10 N1          -2.9220     0.5180    -0.1900 nt         1 3AB      -0.672000
     11 HN3          2.5500    -2.3490     0.0600 hn         1 3AB       0.396300
     12 HN3A         3.7050    -1.1460    -0.0090 hn         1 3AB       0.396300
     13 H2           0.1800    -1.8880    -0.0690 ha         1 3AB       0.155000
     14 H4           3.1540     1.2000    -0.0890 ha         1 3AB       0.131000
     15 H5           1.3860     2.8880     0.1300 ha         1 3AB       0.130000
     16 H6          -0.9690     2.2430     0.2550 ha         1 3AB       0.127000
     17 HN1         -2.7240     1.4470    -0.5160 hn         1 3AB       0.314000
     18 HN1A        -3.8920     0.2470    -0.1520 hn         1 3AB       0.314000
@<TRIPOS>BOND
     1     1     2 1   
     2     1    11 1   
     3     1    12 1   
     4     2     3 ar  
     5     2     4 ar  
     6     3     7 ar  
     7     3    13 1   
     8     4     5 ar  
     9     4    14 1   
    10     5     6 ar  
    11     5    15 1   
    12     6     7 ar  
    13     6    16 1   
    14     7     8 1   
    15     8     9 2   
    16     8    10 1   
    17    10    17 1   
    18    10    18 1   
@<TRIPOS>SUBSTRUCTURE
     1 3AB         1 TEMP              0 ****  ****    0 ROOT
