@<TRIPOS>MOLECULE
3AB
   18    18     1     0     0
SMALL
No Charge or Current Charge


@<TRIPOS>ATOM
      1 N3           2.8170    -1.4120     0.0480 nv         1 3AB      -1.075000
      2 C3           1.8190    -0.4730     0.0260 ca         1 3AB       0.286000
      3 C2           0.4720    -0.8690     0.0260 ca         1 3AB      -0.126000
      4 C4           2.1450     0.8900     0.0030 ca         1 3AB      -0.163000
      5 C5           1.1270     1.8560    -0.0210 ca         1 3AB      -0.079000
      6 C6          -0.2220     1.4610    -0.0210 ca         1 3AB      -0.137000
      7 C1          -0.5700     0.0880     0.0020 ca         1 3AB      -0.109600
      8 C7          -2.0150    -0.3760     0.0030 c          1 3AB       0.616700
      9 O1          -2.3320    -1.5550     0.0230 o          1 3AB      -0.609100
     10 N1          -2.9890     0.5600    -0.0190 nt         1 3AB      -0.605000
     11 HN3          2.5930    -2.3980    -0.0740 hn         1 3AB       0.451500
     12 HN3A         3.7860    -1.1290    -0.0860 hn         1 3AB       0.451500
     13 H2           0.2330    -1.9300     0.0450 ha         1 3AB       0.137000
     14 H4           3.1850     1.2040     0.0040 ha         1 3AB       0.113000
     15 H5           1.3830     2.9140    -0.0390 ha         1 3AB       0.112000
     16 H6          -0.9850     2.2340    -0.0400 ha         1 3AB       0.109000
     17 HN1         -2.7500     1.5390    -0.0360 hn         1 3AB       0.314000
     18 HN1A        -3.9540     0.2660    -0.0190 hn         1 3AB       0.314000
@<TRIPOS>BOND
     1     1     2 1   
     2     1    11 1   
     3     1    12 1   
     4     2     3 ar  
     5     2     4 ar  
     6     3     7 ar  
     7     3    13 1   
     8     4     5 ar  
     9     4    14 1   
    10     5     6 ar  
    11     5    15 1   
    12     6     7 ar  
    13     6    16 1   
    14     7     8 1   
    15     8     9 2   
    16     8    10 1   
    17    10    17 1   
    18    10    18 1   
@<TRIPOS>SUBSTRUCTURE
     1 3AB         1 TEMP              0 ****  ****    0 ROOT
