@<TRIPOS>MOLECULE
3AC
   37    38     1     0     0
SMALL
No Charge or Current Charge


@<TRIPOS>ATOM
      1 O11          0.1030     0.6550     0.9750 os         1 3AC      -0.253200
      2 C11         -1.1020     0.9760     0.4040 cc         1 3AC       0.236100
      3 C12         -1.8180    -0.0960    -0.0870 cd         1 3AC      -0.145400
      4 I12         -1.1680    -2.1300    -0.0200 i          1 3AC      -0.089800
      5 C13         -3.1360     0.1510    -0.7140 c          1 3AC       0.572200
      6 O13         -3.8480    -0.7230    -1.1860 o          1 3AC      -0.532000
      7 N14         -3.5220     1.4690    -0.7320 ns         1 3AC      -0.362100
      8 C15         -2.8130     2.5410    -0.2240 cd         1 3AC       0.100400
      9 C51         -3.5080     3.8730    -0.3710 c3         1 3AC      -0.072900
     10 C16         -1.5770     2.3370     0.3620 cc         1 3AC      -0.212200
     11 C61         -0.7240     3.4440     0.9520 c3         1 3AC      -0.010200
     12 C62         -0.8920     3.5700     2.4770 c3         1 3AC      -0.088100
     13 C21          1.1480     0.6700     0.0560 ca         1 3AC       0.138100
     14 C22          1.0210     1.0490    -1.3060 ca         1 3AC      -0.163000
     15 C23          2.1440     1.0270    -2.1480 ca         1 3AC      -0.079000
     16 C24          3.3960     0.6310    -1.6520 ca         1 3AC      -0.116000
     17 C25          3.5410     0.2540    -0.3020 ca         1 3AC      -0.041800
     18 C26          2.4090     0.2790     0.5370 ca         1 3AC      -0.112000
     19 C27          4.8580    -0.1710     0.2580 ce         1 3AC      -0.098200
     20 C28          6.0690    -0.2730    -0.3630 cf         1 3AC      -0.110700
     21 N29          8.2220    -1.0450     0.8590 n1         1 3AC      -0.451000
     22 C29          7.2650    -0.6950     0.2900 ch         1 3AC       0.273700
     23 H14         -4.4240     1.6270    -1.1620 hn         1 3AC       0.329500
     24 H511        -2.9840     4.5070    -1.0960 hc         1 3AC       0.063033
     25 H512        -4.5450     3.7680    -0.7130 hc         1 3AC       0.063033
     26 H513        -3.5340     4.4080     0.5850 hc         1 3AC       0.063033
     27 H611        -0.9680     4.4080     0.4890 hc         1 3AC       0.047200
     28 H612         0.3350     3.2760     0.7250 hc         1 3AC       0.047200
     29 H621        -0.2680     4.3840     2.8650 hc         1 3AC       0.038700
     30 H622        -1.9360     3.7840     2.7330 hc         1 3AC       0.038700
     31 H623        -0.5960     2.6410     2.9780 hc         1 3AC       0.038700
     32 H22          0.0730     1.3660    -1.7330 ha         1 3AC       0.130000
     33 H23          2.0440     1.3180    -3.1920 ha         1 3AC       0.119000
     34 H24          4.2460     0.6240    -2.3280 ha         1 3AC       0.119000
     35 H26          2.5030    -0.0090     1.5810 ha         1 3AC       0.134000
     36 H27          4.8210    -0.4330     1.3180 ha         1 3AC       0.186000
     37 H28          6.1700    -0.0260    -1.4180 ha         1 3AC       0.202000
@<TRIPOS>BOND
     1     1     2 1   
     2     1    13 1   
     3     2     3 2   
     4     2    10 1   
     5     3     4 1   
     6     3     5 1   
     7     5     6 2   
     8     5     7 1   
     9     7     8 1   
    10     7    23 1   
    11     8     9 1   
    12     8    10 2   
    13     9    24 1   
    14     9    25 1   
    15     9    26 1   
    16    10    11 1   
    17    11    12 1   
    18    11    27 1   
    19    11    28 1   
    20    12    29 1   
    21    12    30 1   
    22    12    31 1   
    23    13    14 ar  
    24    13    18 ar  
    25    14    15 ar  
    26    14    32 1   
    27    15    16 ar  
    28    15    33 1   
    29    16    17 ar  
    30    16    34 1   
    31    17    18 ar  
    32    17    19 1   
    33    18    35 1   
    34    19    20 2   
    35    19    36 1   
    36    20    22 1   
    37    20    37 1   
    38    21    22 3   
@<TRIPOS>SUBSTRUCTURE
     1 3AC         1 TEMP              0 ****  ****    0 ROOT
