@<TRIPOS>MOLECULE
3AC
   37    38     1     0     0
SMALL
bcc


@<TRIPOS>ATOM
      1 O11          0.0500     0.5570     0.7220 os         1 3AC      -0.253200
      2 C11         -1.1760     0.8920     0.2400 cc         1 3AC       0.236100
      3 C12         -2.0060    -0.0920    -0.2180 cd         1 3AC      -0.145400
      4 I12         -1.4270    -2.0880    -0.2660 i          1 3AC      -0.089800
      5 C13         -3.3330     0.2110    -0.6780 c          1 3AC       0.714700
      6 O13         -4.1540    -0.5920    -1.1020 o          1 3AC      -0.607500
      7 N14         -3.6310     1.5560    -0.6020 ns         1 3AC      -0.429100
      8 C15         -2.8250     2.5470    -0.1530 cd         1 3AC       0.100400
      9 C51         -3.3970     3.9280    -0.1820 c3         1 3AC      -0.072900
     10 C16         -1.5570     2.2560     0.2760 cc         1 3AC      -0.212200
     11 C61         -0.6330     3.3090     0.8250 c3         1 3AC      -0.010200
     12 C62         -0.6690     3.3870     2.3500 c3         1 3AC      -0.088100
     13 C21          1.1300     0.5860    -0.1130 ca         1 3AC       0.138100
     14 C22          1.0430     0.8570    -1.4700 ca         1 3AC      -0.181000
     15 C23          2.2070     0.8520    -2.2330 ca         1 3AC      -0.097000
     16 C24          3.4360     0.5830    -1.6620 ca         1 3AC      -0.134000
     17 C25          3.5190     0.3110    -0.2920 ca         1 3AC      -0.041800
     18 C26          2.3580     0.3180     0.4770 ca         1 3AC      -0.130000
     19 C27          4.7760     0.0200     0.3860 ce         1 3AC      -0.048200
     20 C28          5.9800    -0.0750    -0.1950 cf         1 3AC      -0.060700
     21 N29          8.0930    -0.6040     1.1740 n1         1 3AC      -0.361800
     22 C29          7.1400    -0.3660     0.5700 ch         1 3AC       0.184500
     23 H14         -4.5590     1.8080    -0.9170 hn         1 3AC       0.329500
     24 H511        -2.9670     4.5030    -1.0040 hc         1 3AC       0.063033
     25 H512        -4.4770     3.9110    -0.3170 hc         1 3AC       0.063033
     26 H513        -3.1830     4.4630     0.7410 hc         1 3AC       0.063033
     27 H611        -0.9020     4.2790     0.4060 hc         1 3AC       0.047200
     28 H612         0.3900     3.1300     0.4920 hc         1 3AC       0.047200
     29 H621         0.0130     4.1580     2.7110 hc         1 3AC       0.038700
     30 H622        -1.6700     3.6320     2.7090 hc         1 3AC       0.038700
     31 H623        -0.3750     2.4410     2.8050 hc         1 3AC       0.038700
     32 H22          0.0940     1.0680    -1.9470 ha         1 3AC       0.148000
     33 H23          2.1410     1.0620    -3.2920 ha         1 3AC       0.137000
     34 H24          4.3200     0.5900    -2.2840 ha         1 3AC       0.137000
     35 H26          2.4080     0.1140     1.5390 ha         1 3AC       0.152000
     36 H27          4.7060    -0.1340     1.4580 ha         1 3AC       0.136000
     37 H28          6.1400     0.0600    -1.2570 ha         1 3AC       0.152000
@<TRIPOS>BOND
     1     1     2 1   
     2     1    13 1   
     3     2     3 2   
     4     2    10 1   
     5     3     4 1   
     6     3     5 1   
     7     5     6 2   
     8     5     7 1   
     9     7     8 1   
    10     7    23 1   
    11     8     9 1   
    12     8    10 2   
    13     9    24 1   
    14     9    25 1   
    15     9    26 1   
    16    10    11 1   
    17    11    12 1   
    18    11    27 1   
    19    11    28 1   
    20    12    29 1   
    21    12    30 1   
    22    12    31 1   
    23    13    14 ar  
    24    13    18 ar  
    25    14    15 ar  
    26    14    32 1   
    27    15    16 ar  
    28    15    33 1   
    29    16    17 ar  
    30    16    34 1   
    31    17    18 ar  
    32    17    19 1   
    33    18    35 1   
    34    19    20 2   
    35    19    36 1   
    36    20    22 1   
    37    20    37 1   
    38    21    22 3   
@<TRIPOS>SUBSTRUCTURE
     1 3AC         1 TEMP              0 ****  ****    0 ROOT
