@<TRIPOS>MOLECULE
3AD
   31    33     1     0     0
SMALL
No Charge or Current Charge


@<TRIPOS>ATOM
      1 O5           1.0020    -2.0980    -4.2500 oh         1 3AD      -0.703000
      2 C5           1.0510    -0.6860    -3.9720 c3         1 3AD       0.155600
      3 C4          -0.1860    -0.2230    -3.1500 c5         1 3AD       0.163300
      4 O4          -0.1050    -0.6910    -1.7860 os         1 3AD      -0.431000
      5 C3          -0.3100     1.3090    -2.9670 c5         1 3AD      -0.158400
      6 C2          -1.4020     1.3590    -1.8670 c5         1 3AD       0.133300
      7 O2          -2.7040     1.1850    -2.4510 oh         1 3AD      -0.706000
      8 C1          -0.9680     0.1360    -0.9650 c5         1 3AD       0.323300
      9 N9          -0.2550     0.4370     0.2780 na         1 3AD      -0.311300
     10 C8           0.5930     1.5280     0.5000 cc         1 3AD       0.415700
     11 N7           1.0640     1.5360     1.7620 nd         1 3AD      -0.561100
     12 C7           0.4770     0.4020     2.3320 ca         1 3AD      -0.097600
     13 C6           0.5990    -0.1130     3.6390 ca         1 3AD       0.448900
     14 N6           1.3680     0.4780     4.5930 nv         1 3AD      -1.062900
     15 N1          -0.0420    -1.2340     4.0070 nb         1 3AD      -0.303000
     16 C10         -0.8060    -1.8220     3.0550 ca         1 3AD       0.179900
     17 N3          -0.9830    -1.3970     1.7800 nb         1 3AD      -0.225000
     18 C9          -0.3210    -0.2730     1.4430 ca         1 3AD       0.117500
     19 HO5          1.8400    -2.3280    -4.7160 ho         1 3AD       0.505000
     20 H5'1         1.0710    -0.1220    -4.9140 h1         1 3AD       0.024200
     21 H5'2         1.9630    -0.4340    -3.4150 h1         1 3AD       0.024200
     22 H4          -1.0930    -0.6360    -3.6160 h1         1 3AD       0.080700
     23 H3'1         0.6350     1.7500    -2.6290 hc         1 3AD       0.067700
     24 H3'2        -0.6020     1.8230    -3.8900 hc         1 3AD       0.067700
     25 H2          -1.3670     2.3030    -1.3040 h1         1 3AD       0.084700
     26 HO2         -2.9180     2.0130    -2.9430 ho         1 3AD       0.511000
     27 H1          -1.8620    -0.4300    -0.6730 h2         1 3AD       0.121700
     28 H8           0.8230     2.2570    -0.2690 h5         1 3AD       0.077800
     29 HN61         1.6490    -0.0820     5.3930 hn         1 3AD       0.505000
     30 HN62         2.0250     1.1890     4.2790 hn         1 3AD       0.505000
     31 H6          -1.3320    -2.7310     3.3430 h5         1 3AD       0.045100
@<TRIPOS>BOND
     1     1     2 1   
     2     1    19 1   
     3     2     3 1   
     4     2    20 1   
     5     2    21 1   
     6     3     4 1   
     7     3     5 1   
     8     3    22 1   
     9     4     8 1   
    10     5     6 1   
    11     5    23 1   
    12     5    24 1   
    13     6     7 1   
    14     6     8 1   
    15     6    25 1   
    16     7    26 1   
    17     8     9 1   
    18     8    27 1   
    19     9    10 1   
    20     9    18 1   
    21    10    11 2   
    22    10    28 1   
    23    11    12 1   
    24    12    13 ar  
    25    12    18 ar  
    26    13    14 1   
    27    13    15 ar  
    28    14    29 1   
    29    14    30 1   
    30    15    16 ar  
    31    16    17 ar  
    32    16    31 1   
    33    17    18 ar  
@<TRIPOS>SUBSTRUCTURE
     1 3AD         1 TEMP              0 ****  ****    0 ROOT
