@<TRIPOS>MOLECULE
3AD
   31    33     1     0     0
SMALL
abcg2


@<TRIPOS>ATOM
      1 O5           1.7060    -0.5830    -4.3730 oh         1 3AD      -0.703000
      2 C5           1.0790     0.4890    -3.7120 c3         1 3AD       0.155600
      3 C4          -0.2620     0.0340    -3.1920 c5         1 3AD       0.163300
      4 O4          -0.1090    -1.0540    -2.2630 os         1 3AD      -0.431000
      5 C3          -1.0040     1.1150    -2.4190 c5         1 3AD      -0.158400
      6 C2          -1.8180     0.3030    -1.4230 c5         1 3AD       0.133300
      7 O2          -2.9340    -0.3150    -2.0160 oh         1 3AD      -0.706000
      8 C1          -0.8360    -0.8260    -1.1030 c5         1 3AD       0.323300
      9 N9           0.0770    -0.4420    -0.0240 na         1 3AD      -0.311300
     10 C8           1.4370    -0.3110    -0.0780 cc         1 3AD       0.415700
     11 N7           1.9750    -0.0130     1.0700 nd         1 3AD      -0.561100
     12 C7           0.9160     0.0430     1.9360 ca         1 3AD      -0.097600
     13 C6           0.8200     0.3000     3.3160 ca         1 3AD       0.448900
     14 N6           1.8810     0.5940     4.0710 nv         1 3AD      -1.062900
     15 N1          -0.3920     0.2560     3.8790 nb         1 3AD      -0.303000
     16 C10         -1.4490    -0.0260     3.1210 ca         1 3AD       0.179900
     17 N3          -1.4870    -0.2800     1.8250 nb         1 3AD      -0.225000
     18 C9          -0.2730    -0.2300     1.2770 ca         1 3AD       0.117500
     19 HO5          2.5500    -0.2740    -4.7130 ho         1 3AD       0.505000
     20 H5'1         0.8980     1.3380    -4.3850 h1         1 3AD       0.024200
     21 H5'2         1.6860     0.8710    -2.8800 h1         1 3AD       0.024200
     22 H4          -0.8670    -0.3270    -4.0300 h1         1 3AD       0.080700
     23 H3'1        -0.3060     1.7720    -1.8900 hc         1 3AD       0.067700
     24 H3'2        -1.6220     1.7440    -3.0600 hc         1 3AD       0.067700
     25 H2          -2.0980     0.8770    -0.5340 h1         1 3AD       0.084700
     26 HO2         -3.4960     0.3690    -2.3920 ho         1 3AD       0.511000
     27 H1          -1.3480    -1.7400    -0.7900 h2         1 3AD       0.121700
     28 H8           1.9900    -0.4650    -0.9900 h5         1 3AD       0.077800
     29 HN61         1.7780     0.6830     5.0670 hn         1 3AD       0.505000
     30 HN62         2.8110     0.5540     3.6930 hn         1 3AD       0.505000
     31 H6          -2.4010    -0.0500     3.6400 h5         1 3AD       0.045100
@<TRIPOS>BOND
     1     1     2 1   
     2     1    19 1   
     3     2     3 1   
     4     2    20 1   
     5     2    21 1   
     6     3     4 1   
     7     3     5 1   
     8     3    22 1   
     9     4     8 1   
    10     5     6 1   
    11     5    23 1   
    12     5    24 1   
    13     6     7 1   
    14     6     8 1   
    15     6    25 1   
    16     7    26 1   
    17     8     9 1   
    18     8    27 1   
    19     9    10 1   
    20     9    18 1   
    21    10    11 2   
    22    10    28 1   
    23    11    12 1   
    24    12    13 ar  
    25    12    18 ar  
    26    13    14 1   
    27    13    15 ar  
    28    14    29 1   
    29    14    30 1   
    30    15    16 ar  
    31    16    17 ar  
    32    16    31 1   
    33    17    18 ar  
@<TRIPOS>SUBSTRUCTURE
     1 3AD         1 TEMP              0 ****  ****    0 ROOT
