@<TRIPOS>MOLECULE
3AE
   17    17     1     0     0
SMALL
No Charge or Current Charge


@<TRIPOS>ATOM
      1 O01          3.9530     1.1230     0.0050 o          1 3AE      -0.712500
      2 C01          1.1170     1.2400     0.0070 ca         1 3AE      -0.097000
      3 C02          1.8520     0.0320     0.0010 ca         1 3AE      -0.105600
      4 F01         -3.0160     0.0010    -1.2630 f          1 3AE      -0.129667
      5 F02         -3.0440    -1.0940     0.6150 f          1 3AE      -0.129667
      6 O            3.9700    -1.0250    -0.0070 o          1 3AE      -0.712500
      7 C03          3.3750     0.0440    -0.0000 c          1 3AE       0.711600
      8 C04         -0.2700    -1.1980    -0.0050 ca         1 3AE      -0.095000
      9 C05         -0.9990     0.0090     0.0100 ca         1 3AE      -0.230300
     10 C06          1.1360    -1.1870    -0.0060 ca         1 3AE      -0.097000
     11 F           -3.0610     1.0740     0.6280 f          1 3AE      -0.129667
     12 C07         -2.5330    -0.0030     0.0000 c3         1 3AE       0.352300
     13 C           -0.2890     1.2280     0.0080 ca         1 3AE      -0.095000
     14 H1           1.6340     2.1960     0.0080 ha         1 3AE       0.134000
     15 H3          -0.7890    -2.1540    -0.0180 ha         1 3AE       0.101000
     16 H4           1.6690    -2.1360    -0.0160 ha         1 3AE       0.134000
     17 H5          -0.8240     2.1760     0.0050 ha         1 3AE       0.101000
@<TRIPOS>BOND
     1     1     7 1   
     2     2     3 ar  
     3     2    13 ar  
     4     2    14 1   
     5     3     7 1   
     6     3    10 ar  
     7     4    12 1   
     8     5    12 1   
     9     6     7 1   
    10     8     9 ar  
    11     8    10 ar  
    12     8    15 1   
    13     9    12 1   
    14     9    13 ar  
    15    10    16 1   
    16    11    12 1   
    17    13    17 1   
@<TRIPOS>SUBSTRUCTURE
     1 3AE         1 TEMP              0 ****  ****    0 ROOT
