@<TRIPOS>MOLECULE
3AE
   17    17     1     0     0
SMALL
bcc


@<TRIPOS>ATOM
      1 O01          3.8860     1.1630    -0.0120 o          1 3AE      -0.817800
      2 C01          1.0950     1.2220     0.0130 ca         1 3AE      -0.115000
      3 C02          1.8160     0.0320    -0.0010 ca         1 3AE      -0.105600
      4 F01         -2.9380    -0.0060    -1.2700 f          1 3AE      -0.250967
      5 F02         -2.9900    -1.0820     0.5900 f          1 3AE      -0.250967
      6 O            3.9030    -1.0670    -0.0300 o          1 3AE      -0.817800
      7 C03          3.3430     0.0440    -0.0160 c          1 3AE       0.922200
      8 C04         -0.2720    -1.1870     0.0110 ca         1 3AE      -0.113000
      9 C05         -0.9790     0.0090     0.0280 ca         1 3AE      -0.230300
     10 C06          1.1130    -1.1690    -0.0020 ca         1 3AE      -0.115000
     11 F           -3.0060     1.0700     0.5900 f          1 3AE      -0.250967
     12 C07         -2.4730    -0.0020    -0.0090 c3         1 3AE       0.716200
     13 C           -0.2900     1.2170     0.0260 ca         1 3AE      -0.113000
     14 H1           1.6260     2.1640     0.0140 ha         1 3AE       0.152000
     15 H3          -0.7890    -2.1380     0.0110 ha         1 3AE       0.119000
     16 H4           1.6600    -2.1030    -0.0110 ha         1 3AE       0.152000
     17 H5          -0.8240     2.1580     0.0400 ha         1 3AE       0.119000
@<TRIPOS>BOND
     1     1     7 1   
     2     2     3 ar  
     3     2    13 ar  
     4     2    14 1   
     5     3     7 1   
     6     3    10 ar  
     7     4    12 1   
     8     5    12 1   
     9     6     7 1   
    10     8     9 ar  
    11     8    10 ar  
    12     8    15 1   
    13     9    12 1   
    14     9    13 ar  
    15    10    16 1   
    16    11    12 1   
    17    13    17 1   
@<TRIPOS>SUBSTRUCTURE
     1 3AE         1 TEMP              0 ****  ****    0 ROOT
