@<TRIPOS>MOLECULE
3AF
   73    75     1     0     0
SMALL
bcc


@<TRIPOS>ATOM
      1 C1           7.5770    -4.4600    -0.8330 c3         1 3AF      -0.089600
      2 C2           7.4850    -3.1470    -0.0680 c3         1 3AF      -0.074400
      3 C3           8.2900    -2.0320    -0.7210 c3         1 3AF      -0.074900
      4 C4           8.1970    -0.6870    -0.0010 c3         1 3AF       0.182500
      5 C5           9.1590     0.3250    -0.6240 c3         1 3AF      -0.107100
      6 N6           6.8100    -0.2400     0.0010 n7         1 3AF      -0.840700
      7 C7           6.4700     0.8150     0.9280 c3         1 3AF       0.447500
      8 N8           6.6350     0.3110     2.2820 n8         1 3AF      -0.904300
      9 C9           5.0570     1.2870     0.6430 ca         1 3AF      -0.107800
     10 C12          4.7380     2.6410     0.6720 ca         1 3AF      -0.113250
     11 C13          3.4360     3.0750     0.4860 ca         1 3AF      -0.115000
     12 C10          4.0290     0.3750     0.4140 ca         1 3AF      -0.113250
     13 C11          2.7250     0.7980     0.2270 ca         1 3AF      -0.115000
     14 C14          2.4050     2.1590     0.2650 ca         1 3AF      -0.117000
     15 C15          1.0420     2.6250     0.0860 cc         1 3AF       0.304700
     16 O18          0.1000     1.7040    -0.2080 os         1 3AF      -0.324800
     17 C16          0.4550     3.8530     0.1670 cd         1 3AF      -0.253300
     18 C17         -0.9260     3.6580    -0.0940 cd         1 3AF      -0.253300
     19 C19         -1.0950     2.3240    -0.3170 cc         1 3AF       0.304700
     20 C20         -2.2510     1.5030    -0.6260 ca         1 3AF      -0.117000
     21 C23         -2.1210     0.1610    -0.9850 ca         1 3AF      -0.115000
     22 C24         -3.2400    -0.6100    -1.2660 ca         1 3AF      -0.113250
     23 C21         -3.5390     2.0450    -0.5640 ca         1 3AF      -0.115000
     24 C22         -4.6490     1.2680    -0.8380 ca         1 3AF      -0.113250
     25 C25         -4.5230    -0.0770    -1.1890 ca         1 3AF      -0.107800
     26 C26         -5.7560    -0.9090    -1.4970 c3         1 3AF       0.447500
     27 N27         -5.4110    -2.3150    -1.5860 n8         1 3AF      -0.904300
     28 N28         -6.8090    -0.5350    -0.5640 n7         1 3AF      -0.840700
     29 C29         -8.1050    -1.1690    -0.7700 c3         1 3AF       0.182500
     30 C30         -8.7780    -0.6030    -2.0150 c3         1 3AF      -0.107100
     31 C31         -8.9940    -0.9540     0.4530 c3         1 3AF      -0.074900
     32 C32         -8.4880    -1.5940     1.7440 c3         1 3AF      -0.074400
     33 C33         -9.5180    -1.5200     2.8630 c3         1 3AF      -0.089600
     34 H34          7.2070    -4.3460    -1.8550 hc         1 3AF       0.031033
     35 H35          8.6090    -4.8110    -0.8970 hc         1 3AF       0.031033
     36 H36          6.9910    -5.2460    -0.3560 hc         1 3AF       0.031033
     37 H37          6.4420    -2.8340     0.0140 hc         1 3AF       0.039950
     38 H38          7.8400    -3.2950     0.9570 hc         1 3AF       0.039950
     39 H40          7.9620    -1.9020    -1.7610 hc         1 3AF       0.042200
     40 H39          9.3430    -2.3280    -0.7750 hc         1 3AF       0.042200
     41 H41          8.4790    -0.8390     1.0440 h1         1 3AF       0.043700
     42 H43          9.0940     1.3000    -0.1380 hc         1 3AF       0.036867
     43 H42          8.9360     0.4680    -1.6850 hc         1 3AF       0.036867
     44 H44         10.1940    -0.0100    -0.5440 hc         1 3AF       0.036867
     45 H45          6.5450     0.0380    -0.9370 hn         1 3AF       0.363800
     46 H7           7.1330     1.6920     0.8520 h2         1 3AF       0.058700
     47 H47          5.9580    -0.4240     2.4540 hn         1 3AF       0.346800
     48 H46          6.4360     1.0500     2.9440 hn         1 3AF       0.346800
     49 H50          5.5200     3.3740     0.8360 ha         1 3AF       0.144250
     50 H51          3.2270     4.1370     0.5090 ha         1 3AF       0.137750
     51 H48          4.2520    -0.6850     0.3770 ha         1 3AF       0.144250
     52 H49          1.9550     0.0580     0.0560 ha         1 3AF       0.137750
     53 H52          0.9420     4.7880     0.3920 ha         1 3AF       0.159500
     54 H53         -1.6900     4.4180    -0.1170 ha         1 3AF       0.159500
     55 H56         -1.1440    -0.2980    -1.0560 ha         1 3AF       0.137750
     56 H57         -3.1070    -1.6450    -1.5480 ha         1 3AF       0.144250
     57 H54         -3.6810     3.0820    -0.2870 ha         1 3AF       0.137750
     58 H55         -5.6350     1.7080    -0.7630 ha         1 3AF       0.144250
     59 H26         -6.0970    -0.6230    -2.4970 h2         1 3AF       0.058700
     60 H59         -6.1980    -2.8450    -1.9360 hn         1 3AF       0.346800
     61 H58         -5.1980    -2.6880    -0.6670 hn         1 3AF       0.346800
     62 H60         -6.4780    -0.7180     0.3760 hn         1 3AF       0.363800
     63 H61         -8.0070    -2.2590    -0.9060 h1         1 3AF       0.043700
     64 H63         -9.7420    -1.0850    -2.1820 hc         1 3AF       0.036867
     65 H62         -8.1830    -0.7570    -2.9160 hc         1 3AF       0.036867
     66 H64         -8.9470     0.4700    -1.9060 hc         1 3AF       0.036867
     67 H66         -9.9800    -1.3700     0.2230 hc         1 3AF       0.042200
     68 H65         -9.1410     0.1200     0.6080 hc         1 3AF       0.042200
     69 H68         -7.5680    -1.1070     2.0810 hc         1 3AF       0.039950
     70 H67         -8.2290    -2.6400     1.5550 hc         1 3AF       0.039950
     71 H71         -9.1520    -1.9910     3.7760 hc         1 3AF       0.031033
     72 H69         -9.7690    -0.4860     3.1030 hc         1 3AF       0.031033
     73 H70        -10.4430    -2.0260     2.5770 hc         1 3AF       0.031033
@<TRIPOS>BOND
     1     1     2 1   
     2     1    34 1   
     3     1    35 1   
     4     1    36 1   
     5     2     3 1   
     6     2    37 1   
     7     2    38 1   
     8     3     4 1   
     9     3    39 1   
    10     3    40 1   
    11     4     5 1   
    12     4     6 1   
    13     4    41 1   
    14     5    42 1   
    15     5    43 1   
    16     5    44 1   
    17     6     7 1   
    18     6    45 1   
    19     7     8 1   
    20     7     9 1   
    21     7    46 1   
    22     8    47 1   
    23     8    48 1   
    24     9    10 ar  
    25     9    12 ar  
    26    10    11 ar  
    27    10    49 1   
    28    11    14 ar  
    29    11    50 1   
    30    12    13 ar  
    31    12    51 1   
    32    13    14 ar  
    33    13    52 1   
    34    14    15 1   
    35    15    16 1   
    36    15    17 2   
    37    16    19 1   
    38    17    18 1   
    39    17    53 1   
    40    18    19 2   
    41    18    54 1   
    42    19    20 1   
    43    20    21 ar  
    44    20    23 ar  
    45    21    22 ar  
    46    21    55 1   
    47    22    25 ar  
    48    22    56 1   
    49    23    24 ar  
    50    23    57 1   
    51    24    25 ar  
    52    24    58 1   
    53    25    26 1   
    54    26    27 1   
    55    26    28 1   
    56    26    59 1   
    57    27    60 1   
    58    27    61 1   
    59    28    29 1   
    60    28    62 1   
    61    29    30 1   
    62    29    31 1   
    63    29    63 1   
    64    30    64 1   
    65    30    65 1   
    66    30    66 1   
    67    31    32 1   
    68    31    67 1   
    69    31    68 1   
    70    32    33 1   
    71    32    69 1   
    72    32    70 1   
    73    33    71 1   
    74    33    72 1   
    75    33    73 1   
@<TRIPOS>SUBSTRUCTURE
     1 3AF         1 TEMP              0 ****  ****    0 ROOT
