@<TRIPOS>MOLECULE
3AF
   73    75     1     0     0
SMALL
No Charge or Current Charge


@<TRIPOS>ATOM
      1 C1          10.6930    -2.9020    -1.4440 c3         1 3AF      -0.089600
      2 C2           9.8760    -1.9250    -0.5770 c3         1 3AF      -0.074400
      3 C3           8.7460    -1.2160    -1.3640 c3         1 3AF      -0.074900
      4 C4           7.9440    -0.1790    -0.5370 c3         1 3AF       0.182500
      5 C5           6.9440     0.5940    -1.4260 c3         1 3AF      -0.107100
      6 N6           7.2380    -0.8680     0.5640 n7         1 3AF      -0.895900
      7 C7           6.6960    -0.0460     1.5970 c3         1 3AF       0.447500
      8 N8           6.8510    -1.0060     2.6210 n8         1 3AF      -1.014700
      9 C9           5.2340     0.3420     1.3680 ca         1 3AF      -0.107800
     10 C12          4.8490     1.6900     1.4970 ca         1 3AF      -0.095250
     11 C13          3.5160     2.0800     1.2800 ca         1 3AF      -0.097000
     12 C10          4.2550    -0.6140     1.0210 ca         1 3AF      -0.095250
     13 C11          2.9220    -0.2230     0.8050 ca         1 3AF      -0.097000
     14 C14          2.5340     1.1280     0.9300 ca         1 3AF      -0.117000
     15 C15          1.1340     1.5100     0.6970 cc         1 3AF       0.195000
     16 O18          0.1680     0.5960     0.3480 os         1 3AF      -0.236000
     17 C16          0.6090     2.7740     0.7930 cd         1 3AF      -0.170000
     18 C17         -0.7660     2.6560     0.4870 cd         1 3AF      -0.170000
     19 C19         -0.9890     1.3280     0.2230 cc         1 3AF       0.195000
     20 C20         -2.2750     0.7160    -0.1380 ca         1 3AF      -0.117000
     21 C23         -2.3730    -0.6840    -0.2730 ca         1 3AF      -0.097000
     22 C24         -3.5930    -1.2920    -0.6170 ca         1 3AF      -0.095250
     23 C21         -3.4300     1.4950    -0.3680 ca         1 3AF      -0.097000
     24 C22         -4.6500     0.8860    -0.7130 ca         1 3AF      -0.095250
     25 C25         -4.7550    -0.5180    -0.8270 ca         1 3AF      -0.107800
     26 C26         -6.0850    -1.1790    -1.2260 c3         1 3AF       0.447500
     27 N27         -6.2680    -2.4520    -0.6010 n8         1 3AF      -1.014700
     28 N28         -7.2240    -0.4500    -0.7200 n7         1 3AF      -0.895900
     29 C29         -8.6090    -0.8300    -1.0950 c3         1 3AF       0.182500
     30 C30         -8.8070    -0.6960    -2.6230 c3         1 3AF      -0.107100
     31 C31         -9.6090     0.0640    -0.3180 c3         1 3AF      -0.074900
     32 C32         -9.5730    -0.1200     1.2190 c3         1 3AF      -0.074400
     33 C33        -10.6280     0.7320     1.9520 c3         1 3AF      -0.089600
     34 H34         10.0490    -3.6890    -1.8540 hc         1 3AF       0.031033
     35 H35         11.1710    -2.3750    -2.2780 hc         1 3AF       0.031033
     36 H36         11.4780    -3.3790    -0.8450 hc         1 3AF       0.031033
     37 H37          9.4480    -2.4790     0.2680 hc         1 3AF       0.039950
     38 H38         10.5520    -1.1720    -0.1550 hc         1 3AF       0.039950
     39 H40          8.0600    -1.9680    -1.7710 hc         1 3AF       0.042200
     40 H39          9.1960    -0.7050    -2.2250 hc         1 3AF       0.042200
     41 H41          8.6650     0.5440    -0.1270 h1         1 3AF       0.043700
     42 H43          6.4790     1.4190    -0.8760 hc         1 3AF       0.036867
     43 H42          6.1520    -0.0680    -1.7980 hc         1 3AF       0.036867
     44 H44          7.4580     1.0300    -2.2910 hc         1 3AF       0.036867
     45 H45          6.4580    -1.3830     0.1530 hn         1 3AF       0.419000
     46 H7           7.3330     0.8270     1.8020 h2         1 3AF       0.058700
     47 H47          7.7800    -1.3850     2.4370 hn         1 3AF       0.402000
     48 H46          6.2240    -1.7730     2.3880 hn         1 3AF       0.402000
     49 H50          5.5880     2.4420     1.7630 ha         1 3AF       0.126250
     50 H51          3.2610     3.1310     1.3870 ha         1 3AF       0.119750
     51 H48          4.5190    -1.6640     0.9190 ha         1 3AF       0.126250
     52 H49          2.1890    -0.9810     0.5380 ha         1 3AF       0.119750
     53 H52          1.1330     3.6870     1.0530 ha         1 3AF       0.141500
     54 H53         -1.4930     3.4610     0.4710 ha         1 3AF       0.141500
     55 H56         -1.5000    -1.3120    -0.1120 ha         1 3AF       0.119750
     56 H57         -3.6290    -2.3740    -0.7220 ha         1 3AF       0.126250
     57 H54         -3.3950     2.5780    -0.2910 ha         1 3AF       0.119750
     58 H55         -5.5170     1.5170    -0.8960 ha         1 3AF       0.126250
     59 H26         -6.1310    -1.2820    -2.3200 h2         1 3AF       0.058700
     60 H59         -7.2290    -2.7330    -0.7910 hn         1 3AF       0.402000
     61 H58         -6.2090    -2.3160     0.4070 hn         1 3AF       0.402000
     62 H60         -7.1320    -0.3610     0.2920 hn         1 3AF       0.419000
     63 H61         -8.8250    -1.8710    -0.8150 h1         1 3AF       0.043700
     64 H63         -9.8490    -0.9030    -2.8940 hc         1 3AF       0.036867
     65 H62         -8.1780    -1.4080    -3.1690 hc         1 3AF       0.036867
     66 H64         -8.5600     0.3170    -2.9620 hc         1 3AF       0.036867
     67 H66        -10.6240    -0.1600    -0.6690 hc         1 3AF       0.042200
     68 H65         -9.4200     1.1170    -0.5620 hc         1 3AF       0.042200
     69 H68         -8.5810     0.1470     1.6050 hc         1 3AF       0.039950
     70 H67         -9.7380    -1.1770     1.4620 hc         1 3AF       0.039950
     71 H71        -10.5650     0.5700     3.0340 hc         1 3AF       0.031033
     72 H69        -10.4700     1.7990     1.7540 hc         1 3AF       0.031033
     73 H70        -11.6390     0.4640     1.6230 hc         1 3AF       0.031033
@<TRIPOS>BOND
     1     1     2 1   
     2     1    34 1   
     3     1    35 1   
     4     1    36 1   
     5     2     3 1   
     6     2    37 1   
     7     2    38 1   
     8     3     4 1   
     9     3    39 1   
    10     3    40 1   
    11     4     5 1   
    12     4     6 1   
    13     4    41 1   
    14     5    42 1   
    15     5    43 1   
    16     5    44 1   
    17     6     7 1   
    18     6    45 1   
    19     7     8 1   
    20     7     9 1   
    21     7    46 1   
    22     8    47 1   
    23     8    48 1   
    24     9    10 ar  
    25     9    12 ar  
    26    10    11 ar  
    27    10    49 1   
    28    11    14 ar  
    29    11    50 1   
    30    12    13 ar  
    31    12    51 1   
    32    13    14 ar  
    33    13    52 1   
    34    14    15 1   
    35    15    16 1   
    36    15    17 2   
    37    16    19 1   
    38    17    18 1   
    39    17    53 1   
    40    18    19 2   
    41    18    54 1   
    42    19    20 1   
    43    20    21 ar  
    44    20    23 ar  
    45    21    22 ar  
    46    21    55 1   
    47    22    25 ar  
    48    22    56 1   
    49    23    24 ar  
    50    23    57 1   
    51    24    25 ar  
    52    24    58 1   
    53    25    26 1   
    54    26    27 1   
    55    26    28 1   
    56    26    59 1   
    57    27    60 1   
    58    27    61 1   
    59    28    29 1   
    60    28    62 1   
    61    29    30 1   
    62    29    31 1   
    63    29    63 1   
    64    30    64 1   
    65    30    65 1   
    66    30    66 1   
    67    31    32 1   
    68    31    67 1   
    69    31    68 1   
    70    32    33 1   
    71    32    69 1   
    72    32    70 1   
    73    33    71 1   
    74    33    72 1   
    75    33    73 1   
@<TRIPOS>SUBSTRUCTURE
     1 3AF         1 TEMP              0 ****  ****    0 ROOT
