@<TRIPOS>MOLECULE
3AH
   27    28     1     0     0
SMALL
bcc


@<TRIPOS>ATOM
      1 N           15.2560    23.0400    22.2710 n8         1 3AH      -0.882800
      2 CA          14.1490    23.9240    21.9470 c3         1 3AH       0.032500
      3 CB          12.8530    23.4230    22.5940 c3         1 3AH      -0.093700
      4 CG          12.4200    22.0840    22.1010 cc         1 3AH       0.383600
      5 CD2         11.5330    21.8140    21.1050 cd         1 3AH      -0.296600
      6 ND1         12.9200    20.9030    22.6050 nc         1 3AH      -0.649000
      7 CE1         12.3560    19.9470    21.9330 cd         1 3AH       0.430400
      8 NE2         11.4940    20.4380    20.9970 na         1 3AH      -0.255700
      9 C           14.4720    25.3850    22.3630 c          1 3AH       0.933600
     10 O           13.5040    26.1660    22.4480 o          1 3AH      -0.833800
     11 N1           9.7760    20.1130    19.3510 na         1 3AH      -0.166400
     12 N2           9.2430    19.0840    18.6500 nc         1 3AH      -0.602800
     13 C3           9.9340    18.0560    19.0890 cd         1 3AH       0.763900
     14 N4          10.8770    18.3620    20.0140 nd         1 3AH      -0.772000
     15 C5          10.7390    19.6590    20.1430 cc         1 3AH       0.583000
     16 OXT         15.6750    25.6680    22.5300 o          1 3AH      -0.833800
     17 H           16.1160    23.5190    22.0450 hn         1 3AH       0.329300
     18 H2          15.2200    22.2070    21.6980 hn         1 3AH       0.329300
     19 HA          13.9580    23.9700    20.8600 h1         1 3AH      -0.011300
     20 HB2         12.9900    23.3800    23.6780 hc         1 3AH       0.066700
     21 HB3         12.0620    24.1460    22.3950 hc         1 3AH       0.066700
     22 HD2         10.9480    22.4680    20.4790 h4         1 3AH       0.171000
     23 HE1         12.5090    18.8870    22.0670 h5         1 3AH       0.066100
     24 HN31        10.5080    16.1650    18.7540 hn         1 3AH       0.402800
     25 HN32         9.2130    16.6700    17.8260 hn         1 3AH       0.402800
     26 N3A          9.7000    16.7650    18.7030 nv         1 3AH      -0.902500
     27 HN1          9.4160    21.0480    19.2330 hn         1 3AH       0.337700
@<TRIPOS>BOND
     1     1     2 1   
     2     1    17 1   
     3     1    18 1   
     4     2     3 1   
     5     2     9 1   
     6     2    19 1   
     7     3     4 1   
     8     3    20 1   
     9     3    21 1   
    10     4     5 2   
    11     4     6 1   
    12     5     8 1   
    13     5    22 1   
    14     6     7 2   
    15     7     8 1   
    16     7    23 1   
    17     8    15 1   
    18     9    10 1   
    19     9    16 1   
    20    11    12 1   
    21    11    15 1   
    22    11    27 1   
    23    12    13 2   
    24    13    14 1   
    25    13    26 1   
    26    14    15 2   
    27    24    26 1   
    28    25    26 1   
@<TRIPOS>SUBSTRUCTURE
     1 3AH         1 TEMP              0 ****  ****    0 ROOT
