@<TRIPOS>MOLECULE
3AI
   69    69     1     0     0
SMALL
No Charge or Current Charge


@<TRIPOS>ATOM
      1 O            0.2920    -1.9430     1.5190 o          1 3AI      -0.621100
      2 C1           0.3640    -1.5200     0.3700 c          1 3AI       0.601100
      3 N1          -2.0140    -0.5980     0.0720 n7         1 3AI      -0.879400
      4 CE          -3.1790    -6.1660     0.6040 c3         1 3AI       0.043900
      5 CA1         -0.8880    -1.3610    -0.5690 c3         1 3AI       0.105500
      6 CB1         -1.3610    -2.7400    -1.1130 c3         1 3AI      -0.102400
      7 CG1         -1.9860    -3.6880    -0.0650 c3         1 3AI       0.067600
      8 C           -3.1950    -0.2790    -0.7760 c3         1 3AI       0.128800
      9 N           -3.4380     1.7910     0.5720 n8         1 3AI      -0.981200
     10 CA          -4.1870     0.6660    -0.0320 c3         1 3AI       0.158500
     11 CB          -5.3350     1.1560    -0.9540 c3         1 3AI      -0.031100
     12 CG          -6.4140     1.9540    -0.2250 ca         1 3AI      -0.055300
     13 CZ          -8.4310     3.4140     1.1030 ca         1 3AI      -0.116000
     14 CD1         -6.5770     3.3320    -0.4740 ca         1 3AI      -0.099000
     15 CD2         -7.2730     1.3130     0.6900 ca         1 3AI      -0.099000
     16 CE1         -7.5810     4.0600     0.1890 ca         1 3AI      -0.111500
     17 CE2         -8.2770     2.0410     1.3530 ca         1 3AI      -0.111500
     18 N2           1.5640    -1.1060    -0.1760 ns         1 3AI      -0.486900
     19 CA2          2.8770    -1.1600     0.5030 c3         1 3AI       0.023700
     20 C2           3.8860    -0.1970    -0.1910 c          1 3AI       0.594100
     21 O1           3.6500     0.3580    -1.2590 o          1 3AI      -0.626100
     22 CB2          3.4100    -2.6120     0.5550 c3         1 3AI      -0.103100
     23 N3           5.0740    -0.0120     0.4870 ns         1 3AI      -0.448900
     24 CA3          6.1810     0.8810     0.0630 c3         1 3AI      -0.037300
     25 C3           7.5360     0.4080     0.6870 c          1 3AI       0.718000
     26 O2           7.5300    -0.0500     1.8230 o          1 3AI      -0.723500
     27 CB3          5.8630     2.3870     0.3340 c3         1 3AI      -0.045700
     28 CG2          6.9200     3.3200    -0.3230 c3         1 3AI      -0.069400
     29 CG3          5.6580     2.6940     1.8410 c3         1 3AI      -0.080100
     30 CD3          6.5550     4.8200    -0.3120 c3         1 3AI      -0.086100
     31 OXT          8.5170     0.3620    -0.0420 o          1 3AI      -0.723500
     32 HN1         -2.3250    -1.1070     0.9100 hn         1 3AI       0.438000
     33 HE          -4.0200    -5.5970     1.0210 h1         1 3AI       0.058033
     34 HEA         -3.5330    -7.1610     0.3040 h1         1 3AI       0.058033
     35 HEB         -2.4040    -6.2790     1.3740 h1         1 3AI       0.058033
     36 HA1         -0.5370    -0.7880    -1.4380 h1         1 3AI       0.070700
     37 HB1         -2.0800    -2.5840    -1.9250 hc         1 3AI       0.060700
     38 HB1A        -0.5000    -3.2440    -1.5690 hc         1 3AI       0.060700
     39 HG1         -2.8740    -3.2230     0.3840 h1         1 3AI       0.065200
     40 HG1A        -1.2640    -3.9030     0.7330 h1         1 3AI       0.065200
     41 H           -2.8650     0.2140    -1.7010 h1         1 3AI       0.030200
     42 HA          -3.7310    -1.1940    -1.0620 h1         1 3AI       0.030200
     43 HAA         -4.6260     0.0830     0.7900 h1         1 3AI       0.062700
     44 HB          -4.9100     1.7440    -1.7760 hc         1 3AI       0.043700
     45 HBA         -5.7990     0.2800    -1.4240 hc         1 3AI       0.043700
     46 HZ          -9.2070     3.9780     1.6160 ha         1 3AI       0.105000
     47 HD1         -5.9260     3.8410    -1.1810 ha         1 3AI       0.107500
     48 HD2         -7.1640     0.2480     0.8870 ha         1 3AI       0.107500
     49 HE1         -7.7000     5.1230    -0.0070 ha         1 3AI       0.106500
     50 HE2         -8.9350     1.5390     2.0590 ha         1 3AI       0.106500
     51 HN2          1.5330    -0.7210    -1.1140 hn         1 3AI       0.336500
     52 HA2          2.7490    -0.7970     1.5320 h1         1 3AI       0.064700
     53 HB2          3.5690    -3.0020    -0.4570 hc         1 3AI       0.051367
     54 HB2A         4.3630    -2.6620     1.0950 hc         1 3AI       0.051367
     55 HB2B         2.7000    -3.2710     1.0690 hc         1 3AI       0.051367
     56 HN3          5.1900    -0.5200     1.3570 hn         1 3AI       0.294500
     57 HA3          6.2890     0.7560    -1.0230 h1         1 3AI       0.060700
     58 HB3          4.9090     2.6010    -0.1620 hc         1 3AI       0.010700
     59 HG2          7.8890     3.1910     0.1750 hc         1 3AI       0.057700
     60 HG2A         7.0620     3.0140    -1.3670 hc         1 3AI       0.057700
     61 HG3          5.2740     3.7100     1.9860 hc         1 3AI       0.026700
     62 HG3A         4.9300     2.0070     2.2890 hc         1 3AI       0.026700
     63 HG3B         6.6000     2.6040     2.3940 hc         1 3AI       0.026700
     64 HD3          5.5720     4.9850    -0.7690 hc         1 3AI       0.016700
     65 HD3A         6.5370     5.2180     0.7090 hc         1 3AI       0.016700
     66 HD3B         7.2960     5.3930    -0.8820 hc         1 3AI       0.016700
     67 HN          -2.5140     1.3930     0.7910 hn         1 3AI       0.400000
     68 SD          -2.4850    -5.2790    -0.8640 ss         1 3AI      -0.450000
     69 HNA         -3.2170     2.4650    -0.1670 hn         1 3AI       0.400000
@<TRIPOS>BOND
     1     1     2 2   
     2     2     5 1   
     3     2    18 1   
     4     3     5 1   
     5     3     8 1   
     6     3    32 1   
     7     4    33 1   
     8     4    34 1   
     9     4    35 1   
    10     4    68 1   
    11     5     6 1   
    12     5    36 1   
    13     6     7 1   
    14     6    37 1   
    15     6    38 1   
    16     7    39 1   
    17     7    40 1   
    18     7    68 1   
    19     8    10 1   
    20     8    41 1   
    21     8    42 1   
    22     9    10 1   
    23     9    67 1   
    24     9    69 1   
    25    10    11 1   
    26    10    43 1   
    27    11    12 1   
    28    11    44 1   
    29    11    45 1   
    30    12    14 ar  
    31    12    15 ar  
    32    13    16 ar  
    33    13    17 ar  
    34    13    46 1   
    35    14    16 ar  
    36    14    47 1   
    37    15    17 ar  
    38    15    48 1   
    39    16    49 1   
    40    17    50 1   
    41    18    19 1   
    42    18    51 1   
    43    19    20 1   
    44    19    22 1   
    45    19    52 1   
    46    20    21 2   
    47    20    23 1   
    48    22    53 1   
    49    22    54 1   
    50    22    55 1   
    51    23    24 1   
    52    23    56 1   
    53    24    25 1   
    54    24    27 1   
    55    24    57 1   
    56    25    26 1   
    57    25    31 1   
    58    27    28 1   
    59    27    29 1   
    60    27    58 1   
    61    28    30 1   
    62    28    59 1   
    63    28    60 1   
    64    29    61 1   
    65    29    62 1   
    66    29    63 1   
    67    30    64 1   
    68    30    65 1   
    69    30    66 1   
@<TRIPOS>SUBSTRUCTURE
     1 3AI         1 TEMP              0 ****  ****    0 ROOT
