@<TRIPOS>MOLECULE
3AI
   69    69     1     0     0
SMALL
bcc


@<TRIPOS>ATOM
      1 O           -0.2300    -0.3010     1.6600 o          1 3AI      -0.621100
      2 C1          -0.0370    -0.4050     0.4570 c          1 3AI       0.668100
      3 N1          -2.4060    -0.1430     0.0530 n7         1 3AI      -0.824200
      4 CE          -1.5910    -5.7490     0.8560 c3         1 3AI      -0.004000
      5 CA1         -1.1780    -0.6110    -0.5370 c3         1 3AI       0.105500
      6 CB1         -1.1720    -2.0740    -1.0300 c3         1 3AI      -0.102400
      7 CG1         -1.2840    -3.1010     0.0860 c3         1 3AI       0.019700
      8 C           -3.5590    -0.1190    -0.8230 c3         1 3AI       0.128800
      9 N           -4.2890     2.0700     0.1290 n8         1 3AI      -0.870800
     10 CA          -4.6790     0.7040    -0.1800 c3         1 3AI       0.158500
     11 CB          -5.9210     0.6980    -1.0710 c3         1 3AI      -0.031100
     12 CG          -7.1060     1.3610    -0.4280 ca         1 3AI      -0.055300
     13 CZ          -9.2890     2.5910     0.8280 ca         1 3AI      -0.134000
     14 CD1         -7.4480     2.6780    -0.7210 ca         1 3AI      -0.117000
     15 CD2         -7.8770     0.6700     0.5040 ca         1 3AI      -0.117000
     16 CE1         -8.5300     3.2900    -0.1020 ca         1 3AI      -0.129500
     17 CE2         -8.9580     1.2760     1.1300 ca         1 3AI      -0.129500
     18 N2           1.1840    -0.3860    -0.0960 ns         1 3AI      -0.553900
     19 CA2          2.4060    -0.3200     0.6700 c3         1 3AI       0.023700
     20 C2           3.5180     0.1600    -0.2540 c          1 3AI       0.661100
     21 O1           3.5170    -0.1280    -1.4450 o          1 3AI      -0.626100
     22 CB2          2.7990    -1.6790     1.2520 c3         1 3AI      -0.103100
     23 N3           4.4740     0.8780     0.3360 ns         1 3AI      -0.515900
     24 CA3          5.7530     1.1140    -0.3030 c3         1 3AI      -0.037300
     25 C3           6.5180    -0.2120    -0.5480 c          1 3AI       0.928600
     26 O2           6.2180    -1.1830     0.1690 o          1 3AI      -0.828800
     27 CB3          6.5650     2.1100     0.5480 c3         1 3AI      -0.045700
     28 CG2          7.7280     2.7170    -0.2420 c3         1 3AI      -0.069400
     29 CG3          7.0440     1.5050     1.8670 c3         1 3AI      -0.080100
     30 CD3          8.3160     3.9620     0.4110 c3         1 3AI      -0.086100
     31 OXT          7.3920    -0.1740    -1.4370 o          1 3AI      -0.828800
     32 HN1         -2.6200    -0.6490     0.9030 hn         1 3AI       0.382800
     33 HE          -2.4950    -5.4790     1.4000 h1         1 3AI       0.058033
     34 HEA         -1.6660    -6.7920     0.5530 h1         1 3AI       0.058033
     35 HEB         -0.7270    -5.6390     1.5100 h1         1 3AI       0.058033
     36 HA1         -0.9800     0.0110    -1.4170 h1         1 3AI       0.070700
     37 HB1         -1.9980    -2.2030    -1.7330 hc         1 3AI       0.060700
     38 HB1A        -0.2590    -2.2550    -1.6030 hc         1 3AI       0.060700
     39 HG1         -2.1670    -2.9230     0.7040 h1         1 3AI       0.065200
     40 HG1A        -0.4100    -3.0700     0.7410 h1         1 3AI       0.065200
     41 H           -3.2680     0.3570    -1.7670 h1         1 3AI       0.030200
     42 HA          -3.9410    -1.1180    -1.0820 h1         1 3AI       0.030200
     43 HAA         -4.9430     0.2130     0.7670 h1         1 3AI       0.062700
     44 HB          -5.6790     1.1930    -2.0170 hc         1 3AI       0.043700
     45 HBA         -6.1690    -0.3380    -1.3190 hc         1 3AI       0.043700
     46 HZ         -10.1330     3.0670     1.3110 ha         1 3AI       0.123000
     47 HD1         -6.8630     3.2340    -1.4440 ha         1 3AI       0.125500
     48 HD2         -7.6290    -0.3580     0.7430 ha         1 3AI       0.125500
     49 HE1         -8.7800     4.3150    -0.3450 ha         1 3AI       0.124500
     50 HE2         -9.5450     0.7200     1.8500 ha         1 3AI       0.124500
     51 HN2          1.2820    -0.4920    -1.0950 hn         1 3AI       0.336500
     52 HA2          2.2730     0.3960     1.4840 h1         1 3AI       0.064700
     53 HB2          2.9190    -2.4160     0.4570 hc         1 3AI       0.051367
     54 HB2A         3.7410    -1.6120     1.7950 hc         1 3AI       0.051367
     55 HB2B         2.0310    -2.0320     1.9380 hc         1 3AI       0.051367
     56 HN3          4.4120     1.0020     1.3340 hn         1 3AI       0.294500
     57 HA3          5.5610     1.5890    -1.2700 h1         1 3AI       0.060700
     58 HB3          5.8750     2.9310     0.7820 hc         1 3AI       0.010700
     59 HG2          8.5080     1.9660    -0.3780 hc         1 3AI       0.057700
     60 HG2A         7.3780     2.9770    -1.2440 hc         1 3AI       0.057700
     61 HG3          7.4840     2.2700     2.5060 hc         1 3AI       0.026700
     62 HG3A         6.2400     1.0400     2.4390 hc         1 3AI       0.026700
     63 HG3B         7.8040     0.7410     1.6960 hc         1 3AI       0.026700
     64 HD3          7.5600     4.7410     0.5280 hc         1 3AI       0.016700
     65 HD3A         8.7310     3.7540     1.3980 hc         1 3AI       0.016700
     66 HD3B         9.1210     4.3750    -0.1970 hc         1 3AI       0.016700
     67 HN          -3.3700     2.0390     0.5570 hn         1 3AI       0.344800
     68 SD          -1.4090    -4.7580    -0.6420 ss         1 3AI      -0.354200
     69 HNA         -4.1630     2.5800    -0.7390 hn         1 3AI       0.344800
@<TRIPOS>BOND
     1     1     2 2   
     2     2     5 1   
     3     2    18 1   
     4     3     5 1   
     5     3     8 1   
     6     3    32 1   
     7     4    33 1   
     8     4    34 1   
     9     4    35 1   
    10     4    68 1   
    11     5     6 1   
    12     5    36 1   
    13     6     7 1   
    14     6    37 1   
    15     6    38 1   
    16     7    39 1   
    17     7    40 1   
    18     7    68 1   
    19     8    10 1   
    20     8    41 1   
    21     8    42 1   
    22     9    10 1   
    23     9    67 1   
    24     9    69 1   
    25    10    11 1   
    26    10    43 1   
    27    11    12 1   
    28    11    44 1   
    29    11    45 1   
    30    12    14 ar  
    31    12    15 ar  
    32    13    16 ar  
    33    13    17 ar  
    34    13    46 1   
    35    14    16 ar  
    36    14    47 1   
    37    15    17 ar  
    38    15    48 1   
    39    16    49 1   
    40    17    50 1   
    41    18    19 1   
    42    18    51 1   
    43    19    20 1   
    44    19    22 1   
    45    19    52 1   
    46    20    21 2   
    47    20    23 1   
    48    22    53 1   
    49    22    54 1   
    50    22    55 1   
    51    23    24 1   
    52    23    56 1   
    53    24    25 1   
    54    24    27 1   
    55    24    57 1   
    56    25    26 1   
    57    25    31 1   
    58    27    28 1   
    59    27    29 1   
    60    27    58 1   
    61    28    30 1   
    62    28    59 1   
    63    28    60 1   
    64    29    61 1   
    65    29    62 1   
    66    29    63 1   
    67    30    64 1   
    68    30    65 1   
    69    30    66 1   
@<TRIPOS>SUBSTRUCTURE
     1 3AI         1 TEMP              0 ****  ****    0 ROOT
