@<TRIPOS>MOLECULE
3AK
   29    31     1     0     0
SMALL
bcc


@<TRIPOS>ATOM
      1 O11          0.4030    -2.8690    -1.3530 o          1 3AK      -0.544500
      2 C8           0.8580    -1.8440    -0.9130 c          1 3AK       0.602500
      3 C9           2.1940    -1.7000    -0.1430 c          1 3AK       0.515700
      4 O10          2.9250    -2.6230     0.0980 o          1 3AK      -0.444100
      5 C1           2.2980    -0.2840     0.1700 ca         1 3AK      -0.247600
      6 N7           0.3260    -0.5940    -0.9820 n          1 3AK      -0.380000
      7 C6           1.1570     0.3360    -0.3500 ca         1 3AK       0.106600
      8 C5           0.9640     1.6960    -0.2150 ca         1 3AK      -0.170000
      9 C4           1.9500     2.4180     0.4570 ca         1 3AK      -0.064000
     10 C3           3.0890     1.8100     0.9790 ca         1 3AK      -0.176000
     11 C2           3.2710     0.4410     0.8370 ca         1 3AK      -0.018000
     12 C12         -0.9230    -0.2560    -1.6250 c3         1 3AK       0.153300
     13 C13         -1.9780     0.2150    -0.6550 ca         1 3AK      -0.114300
     14 C18         -2.8140     1.2700    -1.0070 ca         1 3AK      -0.115000
     15 C17         -3.8160     1.6970    -0.1450 ca         1 3AK      -0.126500
     16 C16         -3.9840     1.0770     1.0850 ca         1 3AK      -0.121000
     17 C15         -3.1490     0.0270     1.4450 ca         1 3AK      -0.126500
     18 C14         -2.1530    -0.4030     0.5800 ca         1 3AK      -0.115000
     19 H3           0.0890     2.1960    -0.6050 ha         1 3AK       0.151000
     20 H4           1.8190     3.4850     0.5750 ha         1 3AK       0.135000
     21 H5           3.8290     2.4070     1.4930 ha         1 3AK       0.141000
     22 H6           4.1490    -0.0510     1.2340 ha         1 3AK       0.150000
     23 H7          -0.7430     0.5080    -2.3850 h1         1 3AK       0.070200
     24 H8          -1.2640    -1.1470    -2.1520 h1         1 3AK       0.070200
     25 H9          -2.6800     1.7640    -1.9630 ha         1 3AK       0.132500
     26 H10         -4.4570     2.5200    -0.4330 ha         1 3AK       0.133500
     27 H11         -4.7580     1.4150     1.7620 ha         1 3AK       0.133000
     28 H12         -3.2730    -0.4600     2.4040 ha         1 3AK       0.133500
     29 H13         -1.5120    -1.2240     0.8780 ha         1 3AK       0.132500
@<TRIPOS>BOND
     1     1     2 2   
     2     2     3 1   
     3     2     6 1   
     4     3     4 2   
     5     3     5 1   
     6     5     7 ar  
     7     5    11 ar  
     8     6     7 1   
     9     6    12 1   
    10     7     8 ar  
    11     8     9 ar  
    12     8    19 1   
    13     9    10 ar  
    14     9    20 1   
    15    10    11 ar  
    16    10    21 1   
    17    11    22 1   
    18    12    13 1   
    19    12    23 1   
    20    12    24 1   
    21    13    14 ar  
    22    13    18 ar  
    23    14    15 ar  
    24    14    25 1   
    25    15    16 ar  
    26    15    26 1   
    27    16    17 ar  
    28    16    27 1   
    29    17    18 ar  
    30    17    28 1   
    31    18    29 1   
@<TRIPOS>SUBSTRUCTURE
     1 3AK         1 TEMP              0 ****  ****    0 ROOT
