@<TRIPOS>MOLECULE
3AK
   29    31     1     0     0
SMALL
No Charge or Current Charge


@<TRIPOS>ATOM
      1 O11          0.2500    -2.8990    -0.9580 o          1 3AK      -0.469000
      2 C8           0.7830    -1.8360    -0.6510 c          1 3AK       0.460000
      3 C9           2.0660    -1.6220     0.2330 c          1 3AK       0.515700
      4 O10          2.7810    -2.4770     0.7490 o          1 3AK      -0.444100
      5 C1           2.2270    -0.1420     0.3030 ca         1 3AK      -0.247600
      6 N7           0.3530    -0.5440    -0.9950 n          1 3AK      -0.313000
      7 C6           1.1820     0.4560    -0.4000 ca         1 3AK       0.106600
      8 C5           1.1720     1.8390    -0.6210 ca         1 3AK      -0.152000
      9 C4           2.1790     2.6230    -0.0170 ca         1 3AK      -0.046000
     10 C3           3.2000     2.0140     0.7490 ca         1 3AK      -0.158000
     11 C2           3.2440     0.6130     0.9050 ca         1 3AK       0.000000
     12 C12         -0.9440    -0.2700    -1.6400 c3         1 3AK       0.153300
     13 C13         -2.0320     0.1210    -0.6470 ca         1 3AK      -0.114300
     14 C18         -2.5060     1.4480    -0.5900 ca         1 3AK      -0.097000
     15 C17         -3.5050     1.8050     0.3320 ca         1 3AK      -0.108500
     16 C16         -4.0380     0.8390     1.2020 ca         1 3AK      -0.103000
     17 C15         -3.5710    -0.4850     1.1480 ca         1 3AK      -0.108500
     18 C14         -2.5730    -0.8430     0.2260 ca         1 3AK      -0.097000
     19 H3           0.4050     2.3050    -1.2320 ha         1 3AK       0.133000
     20 H4           2.1770     3.7030    -0.1530 ha         1 3AK       0.117000
     21 H5           3.9750     2.6290     1.2020 ha         1 3AK       0.123000
     22 H6           4.0490     0.1350     1.4600 ha         1 3AK       0.132000
     23 H7          -0.8070     0.5310    -2.3780 h1         1 3AK       0.070200
     24 H8          -1.2690    -1.1600    -2.1950 h1         1 3AK       0.070200
     25 H9          -2.1020     2.2040    -1.2600 ha         1 3AK       0.114500
     26 H10         -3.8660     2.8300     0.3720 ha         1 3AK       0.115500
     27 H11         -4.8110     1.1160     1.9160 ha         1 3AK       0.115000
     28 H12         -3.9840    -1.2350     1.8210 ha         1 3AK       0.115500
     29 H13         -2.2180    -1.8710     0.1920 ha         1 3AK       0.114500
@<TRIPOS>BOND
     1     1     2 2   
     2     2     3 1   
     3     2     6 1   
     4     3     4 2   
     5     3     5 1   
     6     5     7 ar  
     7     5    11 ar  
     8     6     7 1   
     9     6    12 1   
    10     7     8 ar  
    11     8     9 ar  
    12     8    19 1   
    13     9    10 ar  
    14     9    20 1   
    15    10    11 ar  
    16    10    21 1   
    17    11    22 1   
    18    12    13 1   
    19    12    23 1   
    20    12    24 1   
    21    13    14 ar  
    22    13    18 ar  
    23    14    15 ar  
    24    14    25 1   
    25    15    16 ar  
    26    15    26 1   
    27    16    17 ar  
    28    16    27 1   
    29    17    18 ar  
    30    17    28 1   
    31    18    29 1   
@<TRIPOS>SUBSTRUCTURE
     1 3AK         1 TEMP              0 ****  ****    0 ROOT
