@<TRIPOS>MOLECULE
3AL
   17    17     1     0     0
SMALL
bcc


@<TRIPOS>ATOM
      1 C4           0.0120     0.0010    -0.3810 c5         1 3AL       0.197100
      2 C5           0.9030    -1.2080    -0.0740 c          1 3AL       0.689500
      3 O5           0.5430    -2.3550    -0.0050 o          1 3AL      -0.558500
      4 N7           2.1540    -0.7150     0.1070 ns         1 3AL      -0.621500
      5 C8           2.2080     0.6750     0.0070 c          1 3AL       0.826500
      6 O8           3.2130     1.3400     0.1060 o          1 3AL      -0.610500
      7 N9           0.9410     1.0920    -0.2080 ns         1 3AL      -0.606900
      8 N3          -1.1310     0.0530     0.4580 ns         1 3AL      -0.589900
      9 C2          -2.3930     0.2550    -0.0390 c          1 3AL       0.799100
     10 N1          -3.3500     0.3820     0.9040 nt         1 3AL      -0.682000
     11 O2          -2.6230     0.3230    -1.2400 o          1 3AL      -0.634100
     12 H4          -0.3300    -0.0710    -1.4160 h2         1 3AL       0.121700
     13 HN7          2.9620    -1.2770     0.3380 hn         1 3AL       0.356500
     14 HN9          0.7400     2.0320    -0.5100 hn         1 3AL       0.350500
     15 HN3         -0.9810     0.0640     1.4550 hn         1 3AL       0.316500
     16 HN11        -3.1730     0.2260     1.8810 hn         1 3AL       0.321000
     17 HN12        -4.3110     0.4090     0.6130 hn         1 3AL       0.321000
@<TRIPOS>BOND
     1     1     2 1   
     2     1     7 1   
     3     1     8 1   
     4     1    12 1   
     5     2     3 2   
     6     2     4 1   
     7     4     5 1   
     8     4    13 1   
     9     5     6 2   
    10     5     7 1   
    11     7    14 1   
    12     8     9 1   
    13     8    15 1   
    14     9    10 1   
    15     9    11 2   
    16    10    16 1   
    17    10    17 1   
@<TRIPOS>SUBSTRUCTURE
     1 3AL         1 TEMP              0 ****  ****    0 ROOT
