@<TRIPOS>MOLECULE
3AL
   17    17     1     0     0
SMALL
No Charge or Current Charge


@<TRIPOS>ATOM
      1 C4          -0.0200    -0.1220    -0.5100 c5         1 3AL       0.197100
      2 C5           0.9400    -1.2680    -0.0190 c          1 3AL       0.547000
      3 O5           0.7560    -2.4650     0.1490 o          1 3AL      -0.483000
      4 N7           2.1050    -0.6140     0.1810 ns         1 3AL      -0.487500
      5 C8           2.1200     0.7100    -0.0100 c          1 3AL       0.617000
      6 O8           3.0620     1.4600     0.1510 o          1 3AL      -0.535000
      7 N9           0.8720     1.0490    -0.4330 ns         1 3AL      -0.539900
      8 N3          -1.1420    -0.0940     0.4360 ns         1 3AL      -0.522900
      9 C2          -2.3330     0.4080    -0.0060 c          1 3AL       0.665100
     10 N1          -3.2890     0.3970     0.9290 nt         1 3AL      -0.615000
     11 O2          -2.5400     0.8260    -1.1290 o          1 3AL      -0.634100
     12 H4          -0.3310    -0.3480    -1.5390 h2         1 3AL       0.121700
     13 HN7          2.9280    -1.0970     0.5060 hn         1 3AL       0.356500
     14 HN9          0.6480     2.0120    -0.6490 hn         1 3AL       0.350500
     15 HN3         -1.0880    -0.4220     1.3910 hn         1 3AL       0.316500
     16 HN11        -3.0980     0.0470     1.8550 hn         1 3AL       0.321000
     17 HN12        -4.2050     0.7480     0.6940 hn         1 3AL       0.321000
@<TRIPOS>BOND
     1     1     2 1   
     2     1     7 1   
     3     1     8 1   
     4     1    12 1   
     5     2     3 2   
     6     2     4 1   
     7     4     5 1   
     8     4    13 1   
     9     5     6 2   
    10     5     7 1   
    11     7    14 1   
    12     8     9 1   
    13     8    15 1   
    14     9    10 1   
    15     9    11 2   
    16    10    16 1   
    17    10    17 1   
@<TRIPOS>SUBSTRUCTURE
     1 3AL         1 TEMP              0 ****  ****    0 ROOT
