@<TRIPOS>MOLECULE
3AO
   19    19     1     0     0
SMALL
No Charge or Current Charge


@<TRIPOS>ATOM
      1 CAA          3.1660    -0.5950    -0.0160 c3         1 3AO      -0.195100
      2 OAC          2.2630     1.6110     0.0190 o          1 3AO      -0.526100
      3 CAD         -1.0710    -1.9020     0.0100 ca         1 3AO      -0.084000
      4 CAE         -2.1160    -0.9640     0.0320 ca         1 3AO      -0.156000
      5 CAF          0.2660    -1.4700     0.0010 ca         1 3AO      -0.122000
      6 CAG         -0.4920     0.8400     0.0380 ca         1 3AO      -0.128000
      7 CAH          2.0140     0.4110     0.0070 c          1 3AO       0.581700
      8 CAI         -1.8270     0.4070     0.0460 ca         1 3AO       0.282000
      9 CAJ          0.5780    -0.0890     0.0150 ca         1 3AO      -0.135600
     10 HAA          4.1490    -0.1100    -0.0200 hc         1 3AO       0.061033
     11 HAAA         3.0610    -1.2800     0.8320 hc         1 3AO       0.061033
     12 HAAB         3.0450    -1.2590    -0.8790 hc         1 3AO       0.061033
     13 HNAB        -3.8110     1.0090    -0.0610 hn         1 3AO       0.451500
     14 HNAA        -2.6540     2.3110    -0.0600 hn         1 3AO       0.451500
     15 HAD         -1.2980    -2.9660    -0.0010 ha         1 3AO       0.113000
     16 HAE         -3.1470    -1.3070     0.0400 ha         1 3AO       0.113000
     17 HAF          1.0490    -2.2240    -0.0170 ha         1 3AO       0.114000
     18 HAG         -0.2850     1.9070     0.0500 ha         1 3AO       0.132000
     19 NAB         -2.8500     1.3190     0.0680 nv         1 3AO      -1.075000
@<TRIPOS>BOND
     1     1     7 1   
     2     1    10 1   
     3     1    11 1   
     4     1    12 1   
     5     2     7 2   
     6     3     4 ar  
     7     3     5 ar  
     8     3    15 1   
     9     4     8 ar  
    10     4    16 1   
    11     5     9 ar  
    12     5    17 1   
    13     6     8 ar  
    14     6     9 ar  
    15     6    18 1   
    16     7     9 1   
    17     8    19 1   
    18    13    19 1   
    19    14    19 1   
@<TRIPOS>SUBSTRUCTURE
     1 3AO         1 TEMP              0 ****  ****    0 ROOT
