@<TRIPOS>MOLECULE
3AO
   19    19     1     0     0
SMALL
bcc


@<TRIPOS>ATOM
      1 CAA          3.0870    -0.6060    -0.0200 c3         1 3AO      -0.195100
      2 OAC          2.1980     1.5910     0.0090 o          1 3AO      -0.526100
      3 CAD         -1.0480    -1.8830     0.0110 ca         1 3AO      -0.102000
      4 CAE         -2.0800    -0.9630     0.0490 ca         1 3AO      -0.174000
      5 CAF          0.2770    -1.4690    -0.0020 ca         1 3AO      -0.140000
      6 CAG         -0.4750     0.8230     0.0590 ca         1 3AO      -0.146000
      7 CAH          1.9680     0.3990     0.0040 c          1 3AO       0.581700
      8 CAI         -1.8100     0.4130     0.0770 ca         1 3AO       0.143600
      9 CAJ          0.5640    -0.1040     0.0210 ca         1 3AO      -0.135600
     10 HAA          4.0490    -0.0980    -0.0150 hc         1 3AO       0.061033
     11 HAAA         3.0360    -1.2690     0.8450 hc         1 3AO       0.061033
     12 HAAB         3.0280    -1.2340    -0.9100 hc         1 3AO       0.061033
     13 HNAB        -3.7330     1.0240    -0.1550 hn         1 3AO       0.396300
     14 HNAA        -2.6160     2.2650    -0.1340 hn         1 3AO       0.396300
     15 HAD         -1.2800    -2.9390    -0.0110 ha         1 3AO       0.131000
     16 HAE         -3.1080    -1.3060     0.0590 ha         1 3AO       0.131000
     17 HAF          1.0630    -2.2090    -0.0320 ha         1 3AO       0.132000
     18 HAG         -0.2480     1.8820     0.0760 ha         1 3AO       0.150000
     19 NAB         -2.8310     1.3300     0.1740 nv         1 3AO      -0.826200
@<TRIPOS>BOND
     1     1     7 1   
     2     1    10 1   
     3     1    11 1   
     4     1    12 1   
     5     2     7 2   
     6     3     4 ar  
     7     3     5 ar  
     8     3    15 1   
     9     4     8 ar  
    10     4    16 1   
    11     5     9 ar  
    12     5    17 1   
    13     6     8 ar  
    14     6     9 ar  
    15     6    18 1   
    16     7     9 1   
    17     8    19 1   
    18    13    19 1   
    19    14    19 1   
@<TRIPOS>SUBSTRUCTURE
     1 3AO         1 TEMP              0 ****  ****    0 ROOT
