@<TRIPOS>MOLECULE
3AP
   14    14     1     0     0
SMALL
bcc


@<TRIPOS>ATOM
      1 N1          -1.1230    -1.0810     0.0330 na         1 3AP      -0.012100
      2 C2           0.2060    -1.1730    -0.0050 ca         1 3AP      -0.147300
      3 C3           0.9840    -0.0170    -0.0540 ca         1 3AP       0.196600
      4 C4           0.2940     1.2080    -0.0520 ca         1 3AP      -0.105000
      5 C5          -1.0840     1.2430    -0.0100 ca         1 3AP      -0.087000
      6 C6          -1.8020     0.0640     0.0320 ca         1 3AP      -0.076300
      7 N3           2.3330    -0.0840    -0.1400 nv         1 3AP      -0.803200
      8 HN1         -1.6470    -1.9480     0.0700 hn         1 3AP       0.338700
      9 H2           0.6230    -2.1690     0.0020 h4         1 3AP       0.203000
     10 H4           0.8550     2.1340    -0.0850 ha         1 3AP       0.185000
     11 H5          -1.6100     2.1850    -0.0080 ha         1 3AP       0.196000
     12 H6          -2.8770     0.0030     0.0680 h4         1 3AP       0.209000
     13 HN31         2.8610     0.7430     0.0840 hn         1 3AP       0.451300
     14 HN32         2.7900    -0.9460     0.1030 hn         1 3AP       0.451300
@<TRIPOS>BOND
     1     1     2 1   
     2     1     6 2   
     3     1     8 1   
     4     2     3 ar  
     5     2     9 1   
     6     3     4 ar  
     7     3     7 1   
     8     4     5 ar  
     9     4    10 1   
    10     5     6 ar  
    11     5    11 1   
    12     6    12 1   
    13     7    13 1   
    14     7    14 1   
@<TRIPOS>SUBSTRUCTURE
     1 3AP         1 TEMP              0 ****  ****    0 ROOT
