@<TRIPOS>MOLECULE
3AP
   14    14     1     0     0
SMALL
No Charge or Current Charge


@<TRIPOS>ATOM
      1 N1          -1.1820    -1.1790     0.0370 na         1 3AP      -0.011700
      2 C2           0.2210    -1.1920    -0.0040 ca         1 3AP      -0.180000
      3 C3           0.9730    -0.0090    -0.0460 ca         1 3AP       0.335000
      4 C4           0.3120     1.2290    -0.0500 ca         1 3AP      -0.087000
      5 C5          -1.0930     1.2690    -0.0100 ca         1 3AP      -0.069000
      6 C6          -1.8230     0.0670     0.0330 ca         1 3AP      -0.058300
      7 N3           2.3400    -0.0740    -0.0850 nv         1 3AP      -1.052000
      8 HN1         -1.7190    -2.0420     0.0680 hn         1 3AP       0.389000
      9 H2           0.7080    -2.1670    -0.0040 h4         1 3AP       0.185000
     10 H4           0.8820     2.1540    -0.0860 ha         1 3AP       0.167000
     11 H5          -1.6140     2.2260    -0.0130 ha         1 3AP       0.178000
     12 H6          -2.9140     0.0700     0.0650 h4         1 3AP       0.191000
     13 HN31         2.8960     0.7710     0.0490 hn         1 3AP       0.506500
     14 HN32         2.8150    -0.9610     0.0830 hn         1 3AP       0.506500
@<TRIPOS>BOND
     1     1     2 1   
     2     1     6 2   
     3     1     8 1   
     4     2     3 ar  
     5     2     9 1   
     6     3     4 ar  
     7     3     7 1   
     8     4     5 ar  
     9     4    10 1   
    10     5     6 ar  
    11     5    11 1   
    12     6    12 1   
    13     7    13 1   
    14     7    14 1   
@<TRIPOS>SUBSTRUCTURE
     1 3AP         1 TEMP              0 ****  ****    0 ROOT
