@<TRIPOS>MOLECULE
3AQ
   17    17     1     0     0
SMALL
No Charge or Current Charge


@<TRIPOS>ATOM
      1 C01         -0.0500     1.2850    -0.3790 ca         1 3AQ      -0.055000
      2 C02         -1.4330    -1.1000     0.1620 ca         1 3AQ      -0.175000
      3 C03         -0.0890    -1.1450    -0.2480 ca         1 3AQ      -0.055000
      4 C04         -1.3940     1.3260     0.0310 ca         1 3AQ      -0.175000
      5 C06          2.9840     0.0470     0.1860 c1         1 3AQ       0.298900
      6 N            3.7310     0.0820     1.0810 n1         1 3AQ      -0.461000
      7 C07         -2.0850     0.1350     0.3000 ca         1 3AQ       0.149100
      8 C            0.6110     0.0480    -0.5200 ca         1 3AQ      -0.131300
      9 H1           0.4770     2.2150    -0.5840 ha         1 3AQ       0.116500
     10 H2          -1.9600    -2.0290     0.3690 ha         1 3AQ       0.124000
     11 H3           0.4090    -2.1080    -0.3510 ha         1 3AQ       0.116500
     12 H4          -1.8990     2.2820     0.1390 ha         1 3AQ       0.124000
     13 H5           2.3050     0.8410    -1.6270 hc         1 3AQ       0.074200
     14 H6           2.2760    -0.9120    -1.5340 hc         1 3AQ       0.074200
     15 H7          -3.7050    -0.7300     0.8380 ho         1 3AQ       0.467000
     16 C05          2.0720     0.0010    -0.9630 c3         1 3AQ       0.040000
     17 O           -3.3870     0.1870     0.6960 oh         1 3AQ      -0.531100
@<TRIPOS>BOND
     1     1     4 ar  
     2     1     8 ar  
     3     1     9 1   
     4     2     3 ar  
     5     2     7 ar  
     6     2    10 1   
     7     3     8 ar  
     8     3    11 1   
     9     4     7 ar  
    10     4    12 1   
    11     5     6 3   
    12     5    16 1   
    13     7    17 1   
    14     8    16 1   
    15    13    16 1   
    16    14    16 1   
    17    15    17 1   
@<TRIPOS>SUBSTRUCTURE
     1 3AQ         1 TEMP              0 ****  ****    0 ROOT
