@<TRIPOS>MOLECULE
3AQ
   17    17     1     0     0
SMALL
abcg2


@<TRIPOS>ATOM
      1 C01         -0.0800     1.2700    -0.4200 ca         1 3AQ      -0.055000
      2 C02         -1.3830    -1.0950     0.1930 ca         1 3AQ      -0.175000
      3 C03         -0.0590    -1.1120    -0.2180 ca         1 3AQ      -0.055000
      4 C04         -1.4030     1.3020    -0.0120 ca         1 3AQ      -0.175000
      5 C06          2.9520    -0.0490     0.1840 c1         1 3AQ       0.298900
      6 N            3.6470    -0.1230     1.0980 n1         1 3AQ      -0.461000
      7 C07         -2.0640     0.1150     0.2980 ca         1 3AQ       0.149100
      8 C            0.6090     0.0670    -0.5290 ca         1 3AQ      -0.131300
      9 H1           0.4190     2.2010    -0.6590 ha         1 3AQ       0.116500
     10 H2          -1.8830    -2.0280     0.4270 ha         1 3AQ       0.124000
     11 H3           0.4530    -2.0630    -0.3010 ha         1 3AQ       0.116500
     12 H4          -1.9260     2.2470     0.0670 ha         1 3AQ       0.124000
     13 H5           2.3150     0.9430    -1.5200 hc         1 3AQ       0.074200
     14 H6           2.2620    -0.8050    -1.6180 hc         1 3AQ       0.074200
     15 H7          -3.7010    -0.6820     0.8780 ho         1 3AQ       0.467000
     16 C05          2.0550     0.0420    -0.9610 c3         1 3AQ       0.040000
     17 O           -3.3500     0.1950     0.6890 oh         1 3AQ      -0.531100
@<TRIPOS>BOND
     1     1     4 ar  
     2     1     8 ar  
     3     1     9 1   
     4     2     3 ar  
     5     2     7 ar  
     6     2    10 1   
     7     3     8 ar  
     8     3    11 1   
     9     4     7 ar  
    10     4    12 1   
    11     5     6 3   
    12     5    16 1   
    13     7    17 1   
    14     8    16 1   
    15    13    16 1   
    16    14    16 1   
    17    15    17 1   
@<TRIPOS>SUBSTRUCTURE
     1 3AQ         1 TEMP              0 ****  ****    0 ROOT
