@<TRIPOS>MOLECULE
3AR
   35    34     1     0     0
SMALL
bcc


@<TRIPOS>ATOM
      1 N            8.9050    -0.8000    25.9620 n8         1 3AR      -0.858800
      2 CA           8.9340    -1.2680    24.5860 c3         1 3AR       0.014500
      3 C            8.7310    -2.7990    24.5140 c          1 3AR       0.936600
      4 O            9.0040    -3.4590    25.5360 o          1 3AR      -0.818300
      5 CB          10.2060    -0.9250    23.7890 c3         1 3AR      -0.106400
      6 CG          10.5510     0.5670    23.7290 c3         1 3AR      -0.110400
      7 CD          11.5550     1.0400    24.7780 c3         1 3AR       0.031300
      8 NE          12.8480     0.3800    24.6890 nu         1 3AR      -0.395100
      9 CZ          13.7340     0.5330    23.7070 cz         1 3AR       0.518300
     10 NH1         13.6000     1.5130    22.8220 nu         1 3AR      -0.391200
     11 NH2         14.7490    -0.3210    23.6080 nv         1 3AR      -0.515200
     12 C1          14.4610     1.7210    21.6680 c3         1 3AR       0.034300
     13 C2          13.7570     2.5580    20.6120 c3         1 3AR      -0.092400
     14 C3          12.5410     1.8750    20.0050 c3         1 3AR      -0.099100
     15 OXT          8.3530    -3.2470    23.4120 o          1 3AR      -0.818300
     16 H            9.0670     0.1980    26.0040 hn         1 3AR       0.309300
     17 H2           9.6480    -1.2440    26.4880 hn         1 3AR       0.309300
     18 HA           8.0950    -0.7910    24.0670 h1         1 3AR       0.053700
     19 HB2         10.0690    -1.2980    22.7720 hc         1 3AR       0.048700
     20 HB3         11.0510    -1.4890    24.2000 hc         1 3AR       0.048700
     21 HG2          9.6460     1.1730    23.8410 hc         1 3AR       0.049200
     22 HG3         10.9390     0.8140    22.7380 hc         1 3AR       0.049200
     23 HD2         11.1930     0.8330    25.7820 h1         1 3AR       0.066200
     24 HD3         11.6830     2.1240    24.7260 h1         1 3AR       0.066200
     25 HE          13.0460    -0.3330    25.3730 hn         1 3AR       0.320700
     26 HH1         12.9340     2.2440    23.0240 hn         1 3AR       0.322700
     27 HH21        15.5720    -0.1020    23.0730 hn         1 3AR       0.317700
     28 HH22        14.8250    -1.1010    24.2410 hn         1 3AR       0.317700
     29 H11         14.7170     0.7500    21.2390 h1         1 3AR       0.058700
     30 H12         15.3920     2.2070    21.9730 h1         1 3AR       0.058700
     31 H21         14.4900     2.7710    19.8330 hc         1 3AR       0.061700
     32 H22         13.4780     3.5260    21.0390 hc         1 3AR       0.061700
     33 H31         12.8120     0.9200    19.5530 hc         1 3AR       0.050033
     34 H32         12.0980     2.4970    19.2270 hc         1 3AR       0.050033
     35 H33         11.7660     1.6830    20.7470 hc         1 3AR       0.050033
@<TRIPOS>BOND
     1     1     2 1   
     2     1    16 1   
     3     1    17 1   
     4     2     3 1   
     5     2     5 1   
     6     2    18 1   
     7     3     4 1   
     8     3    15 1   
     9     5     6 1   
    10     5    19 1   
    11     5    20 1   
    12     6     7 1   
    13     6    21 1   
    14     6    22 1   
    15     7     8 1   
    16     7    23 1   
    17     7    24 1   
    18     8     9 2   
    19     8    25 1   
    20     9    10 1   
    21     9    11 1   
    22    10    12 1   
    23    10    26 1   
    24    11    27 1   
    25    11    28 1   
    26    12    13 1   
    27    12    29 1   
    28    12    30 1   
    29    13    14 1   
    30    13    31 1   
    31    13    32 1   
    32    14    33 1   
    33    14    34 1   
    34    14    35 1   
@<TRIPOS>SUBSTRUCTURE
     1 3AR         1 TEMP              0 ****  ****    0 ROOT
