@<TRIPOS>MOLECULE
3AS
   46    49     1     0     0
SMALL
bcc


@<TRIPOS>ATOM
      1 C1          -4.0370     0.1110     0.8590 ca         1 3AS       0.114100
      2 C2          -3.6730    -1.1320     0.3440 ca         1 3AS      -0.170000
      3 C3          -2.3430    -1.4220     0.0870 ca         1 3AS      -0.060300
      4 C4          -1.3760    -0.4450     0.3330 ca         1 3AS       0.093100
      5 O5          -0.0840    -0.7770     0.0640 os         1 3AS      -0.323900
      6 C6           0.8790    -0.1200     0.8680 c6         1 3AS       0.214400
      7 C8           2.2450    -0.6110     0.4770 ca         1 3AS      -0.127300
      8 C9           3.2650    -0.6070     1.4210 ca         1 3AS      -0.071500
      9 C10          4.5560    -0.9900     1.0920 ca         1 3AS      -0.196500
     10 C11          4.8490    -1.3960    -0.2070 ca         1 3AS       0.147100
     11 O12          6.0830    -1.7810    -0.5900 oh         1 3AS      -0.492100
     12 C13          3.8330    -1.4150    -1.1600 ca         1 3AS      -0.196500
     13 C14          2.5490    -1.0250    -0.8180 ca         1 3AS      -0.071500
     14 C15          0.7500     1.3910     0.7360 c5         1 3AS      -0.093700
     15 C17         -0.6920     1.8820     1.0330 c5         1 3AS      -0.007400
     16 C19         -1.7250     0.8050     0.8270 ca         1 3AS      -0.109300
     17 C20         -3.0650     1.0690     1.1000 ca         1 3AS      -0.136000
     18 C21         -0.9210     3.0820     0.0790 c5         1 3AS      -0.126400
     19 C22          0.4190     3.3080    -0.5900 c5         1 3AS       0.417600
     20 F23          0.3100     3.9070    -1.8100 f          1 3AS      -0.240300
     21 F24          1.1830     4.1680     0.1630 f          1 3AS      -0.240300
     22 C25          1.0860     1.9560    -0.6420 c5         1 3AS      -0.121400
     23 C26         -1.9030    -2.7590    -0.4430 c3         1 3AS       0.185700
     24 O27         -3.0090    -3.5960    -0.6200 os         1 3AS      -0.413600
     25 C28         -2.6470    -4.8720    -1.0860 c3         1 3AS       0.124700
     26 O29         -5.3220     0.4270     1.1400 oh         1 3AS      -0.497100
     27 H2          -4.4340    -1.8800     0.1580 ha         1 3AS       0.153000
     28 H6           0.6980    -0.3790     1.9210 h1         1 3AS       0.053700
     29 H9           3.0540    -0.3020     2.4400 ha         1 3AS       0.138000
     30 H10          5.3310    -0.9770     1.8510 ha         1 3AS       0.141000
     31 H12          6.6990    -1.7170     0.1480 ho         1 3AS       0.427000
     32 H13          4.0530    -1.7360    -2.1710 ha         1 3AS       0.141000
     33 H14          1.7800    -1.0490    -1.5790 ha         1 3AS       0.138000
     34 H15          1.4260     1.8310     1.4730 hc         1 3AS       0.072700
     35 H17         -0.7540     2.2200     2.0700 hc         1 3AS       0.069700
     36 H20         -3.3540     2.0370     1.4930 ha         1 3AS       0.147000
     37 H211        -1.6570     2.8340    -0.6880 hc         1 3AS       0.077700
     38 H212        -1.2770     3.9740     0.5940 hc         1 3AS       0.077700
     39 H251         2.1550     2.0170    -0.8470 hc         1 3AS       0.080700
     40 H252         0.6190     1.3670    -1.4360 hc         1 3AS       0.080700
     41 H261        -1.3630    -2.6240    -1.3930 h1         1 3AS       0.040700
     42 H262        -1.1800    -3.2080     0.2550 h1         1 3AS       0.040700
     43 H281        -2.1400    -4.8250    -2.0570 h1         1 3AS       0.030033
     44 H282        -1.9840    -5.3910    -0.3840 h1         1 3AS       0.030033
     45 H283        -3.5580    -5.4580    -1.2000 h1         1 3AS       0.030033
     46 H29         -5.9010    -0.3140     0.9290 ho         1 3AS       0.427000
@<TRIPOS>BOND
     1     1     2 ar  
     2     1    17 ar  
     3     1    26 1   
     4     2     3 ar  
     5     2    27 1   
     6     3     4 ar  
     7     3    23 1   
     8     4     5 1   
     9     4    16 ar  
    10     5     6 1   
    11     6     7 1   
    12     6    14 1   
    13     6    28 1   
    14     7     8 ar  
    15     7    13 ar  
    16     8     9 ar  
    17     8    29 1   
    18     9    10 ar  
    19     9    30 1   
    20    10    11 1   
    21    10    12 ar  
    22    11    31 1   
    23    12    13 ar  
    24    12    32 1   
    25    13    33 1   
    26    14    15 1   
    27    14    22 1   
    28    14    34 1   
    29    15    16 1   
    30    15    18 1   
    31    15    35 1   
    32    16    17 ar  
    33    17    36 1   
    34    18    19 1   
    35    18    37 1   
    36    18    38 1   
    37    19    20 1   
    38    19    21 1   
    39    19    22 1   
    40    22    39 1   
    41    22    40 1   
    42    23    24 1   
    43    23    41 1   
    44    23    42 1   
    45    24    25 1   
    46    25    43 1   
    47    25    44 1   
    48    25    45 1   
    49    26    46 1   
@<TRIPOS>SUBSTRUCTURE
     1 3AS         1 TEMP              0 ****  ****    0 ROOT
