@<TRIPOS>MOLECULE
3AS
   46    49     1     0     0
SMALL
No Charge or Current Charge


@<TRIPOS>ATOM
      1 C1          -4.0850     0.1880     1.0560 ca         1 3AS       0.114100
      2 C2          -3.7540    -1.1260     0.6980 ca         1 3AS      -0.152000
      3 C3          -2.4080    -1.4850     0.4910 ca         1 3AS      -0.060300
      4 C4          -1.3930    -0.5110     0.6440 ca         1 3AS       0.093100
      5 O5          -0.0810    -0.8930     0.4660 os         1 3AS      -0.347100
      6 C6           0.9640    -0.0720     1.0110 c6         1 3AS       0.237600
      7 C8           2.3300    -0.5900     0.5400 ca         1 3AS      -0.127300
      8 C9           3.4390    -0.5130     1.4060 ca         1 3AS      -0.053500
      9 C10          4.7000    -0.9750     0.9880 ca         1 3AS      -0.178500
     10 C11          4.8600    -1.5140    -0.2980 ca         1 3AS       0.147100
     11 O12          6.0790    -1.9630    -0.7090 oh         1 3AS      -0.531100
     12 C13          3.7630    -1.5930    -1.1660 ca         1 3AS      -0.178500
     13 C14          2.5000    -1.1330    -0.7520 ca         1 3AS      -0.053500
     14 C15          0.7270     1.4060     0.6380 c5         1 3AS      -0.093700
     15 C17         -0.6650     1.9490     1.0990 c5         1 3AS      -0.007400
     16 C19         -1.7240     0.8340     0.9660 ca         1 3AS      -0.109300
     17 C20         -3.0800     1.1550     1.1920 ca         1 3AS      -0.118000
     18 C21         -1.0230     3.0820     0.0630 c5         1 3AS      -0.126400
     19 C22          0.2320     3.2080    -0.8420 c5         1 3AS       0.175000
     20 F23         -0.0980     3.6650    -2.1150 f          1 3AS      -0.119000
     21 F24          1.1720     4.0840    -0.3000 f          1 3AS      -0.119000
     22 C25          0.7510     1.7540    -0.8790 c5         1 3AS      -0.121400
     23 C26         -2.0740    -2.9290     0.1200 c3         1 3AS       0.208900
     24 O27         -2.3550    -3.1260    -1.2780 os         1 3AS      -0.460000
     25 C28         -2.0720    -4.4500    -1.7600 c3         1 3AS       0.147900
     26 O29         -5.3870     0.5350     1.2690 oh         1 3AS      -0.536100
     27 H2          -4.5330    -1.8760     0.5830 ha         1 3AS       0.135000
     28 H6           0.9140    -0.1640     2.1070 h1         1 3AS       0.053700
     29 H9           3.3250    -0.0940     2.4040 ha         1 3AS       0.120000
     30 H10          5.5460    -0.9090     1.6680 ha         1 3AS       0.123000
     31 H12          6.7210    -1.8300     0.0210 ho         1 3AS       0.466000
     32 H13          3.8880    -2.0090    -2.1620 ha         1 3AS       0.123000
     33 H14          1.6570    -1.1960    -1.4370 ha         1 3AS       0.120000
     34 H15          1.5250     1.9500     1.1580 hc         1 3AS       0.072700
     35 H17         -0.6190     2.3320     2.1250 hc         1 3AS       0.069700
     36 H20         -3.3580     2.1690     1.4660 ha         1 3AS       0.129000
     37 H211        -1.8970     2.8260    -0.5480 hc         1 3AS       0.077700
     38 H212        -1.2590     4.0300     0.5590 hc         1 3AS       0.077700
     39 H251         1.7540     1.6850    -1.3130 hc         1 3AS       0.080700
     40 H252         0.0900     1.1040    -1.4650 hc         1 3AS       0.080700
     41 H261        -1.0220    -3.1520     0.3410 h1         1 3AS       0.040700
     42 H262        -2.6860    -3.6050     0.7320 h1         1 3AS       0.040700
     43 H281        -1.0090    -4.6940    -1.6280 h1         1 3AS       0.030033
     44 H282        -2.6700    -5.1970    -1.2220 h1         1 3AS       0.030033
     45 H283        -2.3090    -4.5260    -2.8280 h1         1 3AS       0.030033
     46 H29         -5.9520    -0.2550     1.1270 ho         1 3AS       0.466000
@<TRIPOS>BOND
     1     1     2 ar  
     2     1    17 ar  
     3     1    26 1   
     4     2     3 ar  
     5     2    27 1   
     6     3     4 ar  
     7     3    23 1   
     8     4     5 1   
     9     4    16 ar  
    10     5     6 1   
    11     6     7 1   
    12     6    14 1   
    13     6    28 1   
    14     7     8 ar  
    15     7    13 ar  
    16     8     9 ar  
    17     8    29 1   
    18     9    10 ar  
    19     9    30 1   
    20    10    11 1   
    21    10    12 ar  
    22    11    31 1   
    23    12    13 ar  
    24    12    32 1   
    25    13    33 1   
    26    14    15 1   
    27    14    22 1   
    28    14    34 1   
    29    15    16 1   
    30    15    18 1   
    31    15    35 1   
    32    16    17 ar  
    33    17    36 1   
    34    18    19 1   
    35    18    37 1   
    36    18    38 1   
    37    19    20 1   
    38    19    21 1   
    39    19    22 1   
    40    22    39 1   
    41    22    40 1   
    42    23    24 1   
    43    23    41 1   
    44    23    42 1   
    45    24    25 1   
    46    25    43 1   
    47    25    44 1   
    48    25    45 1   
    49    26    46 1   
@<TRIPOS>SUBSTRUCTURE
     1 3AS         1 TEMP              0 ****  ****    0 ROOT
