@<TRIPOS>MOLECULE
3AV
   20    21     1     0     0
SMALL
No Charge or Current Charge


@<TRIPOS>ATOM
      1 C01          3.9980     0.5190    -0.0040 c3         1 3AV      -0.043800
      2 C02         -0.1740    -0.6570    -0.0290 ca         1 3AV       0.171100
      3 C03          0.8290    -1.6360    -0.0310 ca         1 3AV      -0.129000
      4 C04         -2.5360    -0.1670    -0.0330 c          1 3AV       0.673300
      5 C05         -0.8790     1.7280    -0.0150 cc         1 3AV      -0.065200
      6 C06          1.5210     1.0850    -0.0110 ca         1 3AV      -0.052000
      7 C07         -2.1790     1.2660    -0.0220 cd         1 3AV      -0.325200
      8 O01         -1.4890    -1.0470    -0.0360 os         1 3AV      -0.342200
      9 C08          2.5340     0.1060    -0.0150 ca         1 3AV      -0.102300
     10 C09          0.1640     0.7100    -0.0180 ca         1 3AV      -0.157800
     11 C            2.1830    -1.2580    -0.0230 ca         1 3AV      -0.064000
     12 H1           4.3600     0.6460     1.0230 hc         1 3AV       0.044700
     13 H2           4.6310    -0.2320    -0.4920 hc         1 3AV       0.044700
     14 H3           4.1500     1.4690    -0.5320 hc         1 3AV       0.044700
     15 H4           0.5580    -2.6890    -0.0370 ha         1 3AV       0.139000
     16 H5          -0.6600     2.7950    -0.0070 ha         1 3AV       0.192000
     17 H6           1.7910     2.1390    -0.0010 ha         1 3AV       0.117000
     18 H7          -3.0280     1.9390    -0.0200 ha         1 3AV       0.213000
     19 H8           2.9560    -2.0230    -0.0230 ha         1 3AV       0.119000
     20 O           -3.6970    -0.5480    -0.0400 o          1 3AV      -0.476000
@<TRIPOS>BOND
     1     1     9 1   
     2     1    12 1   
     3     1    13 1   
     4     1    14 1   
     5     2     3 ar  
     6     2     8 1   
     7     2    10 ar  
     8     3    11 ar  
     9     3    15 1   
    10     4     7 1   
    11     4     8 1   
    12     4    20 2   
    13     5     7 2   
    14     5    10 1   
    15     5    16 1   
    16     6     9 ar  
    17     6    10 ar  
    18     6    17 1   
    19     7    18 1   
    20     9    11 ar  
    21    11    19 1   
@<TRIPOS>SUBSTRUCTURE
     1 3AV         1 TEMP              0 ****  ****    0 ROOT
