@<TRIPOS>MOLECULE
3AV
   20    21     1     0     0
SMALL
bcc


@<TRIPOS>ATOM
      1 C01          3.9800     0.5060    -0.0030 c3         1 3AV      -0.043800
      2 C02         -0.1640    -0.6230    -0.0040 ca         1 3AV       0.171100
      3 C03          0.8200    -1.6030     0.0230 ca         1 3AV      -0.147000
      4 C04         -2.5120    -0.1520    -0.0180 c          1 3AV       0.748800
      5 C05         -0.8990     1.6760    -0.0690 cc         1 3AV      -0.015200
      6 C06          1.5300     1.0830    -0.0430 ca         1 3AV      -0.070000
      7 C07         -2.1760     1.2620    -0.0610 cd         1 3AV      -0.275200
      8 O01         -1.4570    -1.0200     0.0050 os         1 3AV      -0.342200
      9 C08          2.5290     0.1290    -0.0120 ca         1 3AV      -0.102300
     10 C09          0.1780     0.7260    -0.0390 ca         1 3AV      -0.157800
     11 C            2.1460    -1.2180     0.0190 ca         1 3AV      -0.082000
     12 H1           4.4590     0.2070     0.9310 hc         1 3AV       0.044700
     13 H2           4.5230     0.0160    -0.8120 hc         1 3AV       0.044700
     14 H3           4.1180     1.5800    -0.1150 hc         1 3AV       0.044700
     15 H4           0.5460    -2.6490     0.0480 ha         1 3AV       0.157000
     16 H5          -0.6700     2.7340    -0.1000 ha         1 3AV       0.142000
     17 H6           1.7870     2.1360    -0.0700 ha         1 3AV       0.135000
     18 H7          -3.0010     1.9580    -0.0830 ha         1 3AV       0.163000
     19 H8           2.9110    -1.9850     0.0400 ha         1 3AV       0.137000
     20 O           -3.6160    -0.6160    -0.0020 o          1 3AV      -0.551500
@<TRIPOS>BOND
     1     1     9 1   
     2     1    12 1   
     3     1    13 1   
     4     1    14 1   
     5     2     3 ar  
     6     2     8 1   
     7     2    10 ar  
     8     3    11 ar  
     9     3    15 1   
    10     4     7 1   
    11     4     8 1   
    12     4    20 2   
    13     5     7 2   
    14     5    10 1   
    15     5    16 1   
    16     6     9 ar  
    17     6    10 ar  
    18     6    17 1   
    19     7    18 1   
    20     9    11 ar  
    21    11    19 1   
@<TRIPOS>SUBSTRUCTURE
     1 3AV         1 TEMP              0 ****  ****    0 ROOT
