@<TRIPOS>MOLECULE
3AW
   16    16     1     0     0
SMALL
bcc


@<TRIPOS>ATOM
      1 N1           0.6900    -1.1600     0.0090 nb         1 3AW      -0.853000
      2 C6           1.3010     0.0140     0.0390 ca         1 3AW       0.752300
      3 C5           2.7960     0.0050     0.0180 c3         1 3AW      -0.139400
      4 NAA          0.7030     1.1950     0.0570 nb         1 3AW      -0.853000
      5 C2          -0.6510    -1.0950    -0.0090 ca         1 3AW       0.963400
      6 CAI         -0.6390     1.1460     0.0420 ca         1 3AW       0.963400
      7 NAH         -1.3630     0.0290     0.0090 nb         1 3AW      -0.890000
      8 NAI         -1.2920     2.3100     0.0720 nv         1 3AW      -0.961000
      9 N3          -1.3180    -2.2520    -0.0570 nv         1 3AW      -0.961000
     10 H51C         3.1460     0.0110    -1.0160 hc         1 3AW       0.059700
     11 H52C         3.2000     0.8890     0.5070 hc         1 3AW       0.059700
     12 H53C         3.1900    -0.8900     0.4940 hc         1 3AW       0.059700
     13 H31N        -0.8230    -3.1240    -0.0120 hn         1 3AW       0.449550
     14 H32N        -2.3210    -2.2640    -0.0140 hn         1 3AW       0.449550
     15 HAI1        -0.7860     3.1770     0.0430 hn         1 3AW       0.449550
     16 HAI2        -2.2940     2.3330     0.0140 hn         1 3AW       0.449550
@<TRIPOS>BOND
     1     1     2 ar  
     2     1     5 ar  
     3     2     3 1   
     4     2     4 ar  
     5     3    10 1   
     6     3    11 1   
     7     3    12 1   
     8     4     6 ar  
     9     5     7 ar  
    10     5     9 1   
    11     6     7 ar  
    12     6     8 1   
    13     8    15 1   
    14     8    16 1   
    15     9    13 1   
    16     9    14 1   
@<TRIPOS>SUBSTRUCTURE
     1 3AW         1 TEMP              0 ****  ****    0 ROOT
