@<TRIPOS>MOLECULE
3AW
   16    16     1     0     0
SMALL
No Charge or Current Charge


@<TRIPOS>ATOM
      1 N1           0.6760    -1.1760    -0.0670 nb         1 3AW      -0.327000
      2 C6           1.3090     0.0140     0.0180 ca         1 3AW       0.226300
      3 C5           2.8260     0.0050     0.0100 c3         1 3AW      -0.139400
      4 NAA          0.6900     1.2110     0.0970 nb         1 3AW      -0.327000
      5 C2          -0.6600    -1.0890    -0.0640 ca         1 3AW       0.437400
      6 CAI         -0.6470     1.1390     0.0920 ca         1 3AW       0.437400
      7 NAH         -1.3870     0.0290     0.0140 nb         1 3AW      -0.364000
      8 NAI         -1.3180     2.3060     0.1690 nv         1 3AW      -1.071400
      9 N3          -1.3440    -2.2470    -0.1430 nv         1 3AW      -1.071400
     10 H51C         3.2100     0.0740    -1.0140 hc         1 3AW       0.059700
     11 H52C         3.2340     0.8500     0.5790 hc         1 3AW       0.059700
     12 H53C         3.2240    -0.9140     0.4560 hc         1 3AW       0.059700
     13 H31N        -0.8390    -3.1090     0.0460 hn         1 3AW       0.504750
     14 H32N        -2.3300    -2.2380     0.1040 hn         1 3AW       0.504750
     15 HAI1        -0.8020     3.1620    -0.0210 hn         1 3AW       0.504750
     16 HAI2        -2.3040     2.3070    -0.0790 hn         1 3AW       0.504750
@<TRIPOS>BOND
     1     1     2 ar  
     2     1     5 ar  
     3     2     3 1   
     4     2     4 ar  
     5     3    10 1   
     6     3    11 1   
     7     3    12 1   
     8     4     6 ar  
     9     5     7 ar  
    10     5     9 1   
    11     6     7 ar  
    12     6     8 1   
    13     8    15 1   
    14     8    16 1   
    15     9    13 1   
    16     9    14 1   
@<TRIPOS>SUBSTRUCTURE
     1 3AW         1 TEMP              0 ****  ****    0 ROOT
