@<TRIPOS>MOLECULE
3AX
   11    11     1     0     0
SMALL
bcc


@<TRIPOS>ATOM
      1 N2           2.0900     0.0440     0.2350 nv         1 3AX      -0.797200
      2 C1           0.7290    -0.0570     0.0690 cc         1 3AX       0.118300
      3 N1          -0.0750     1.0200    -0.0020 na         1 3AX      -0.043600
      4 N3          -1.3790     0.7040    -0.0960 nc         1 3AX      -0.528800
      5 C3          -1.3960    -0.6120    -0.0790 cd         1 3AX       0.332200
      6 C2          -0.1060    -1.1610     0.0220 cd         1 3AX      -0.375300
      7 H1           2.5860    -0.7940    -0.0240 hn         1 3AX       0.392300
      8 H2           2.5140     0.8490    -0.2020 hn         1 3AX       0.392300
      9 H3           0.2040     1.9870     0.0120 hn         1 3AX       0.314700
     10 H4          -2.3340    -1.1430    -0.1430 h4         1 3AX       0.033100
     11 H5           0.1800    -2.2000     0.0510 ha         1 3AX       0.162000
@<TRIPOS>BOND
     1     1     2 1   
     2     1     7 1   
     3     1     8 1   
     4     2     3 1   
     5     2     6 2   
     6     3     4 1   
     7     3     9 1   
     8     4     5 2   
     9     5     6 1   
    10     5    10 1   
    11     6    11 1   
@<TRIPOS>SUBSTRUCTURE
     1 3AX         1 TEMP              0 ****  ****    0 ROOT
