@<TRIPOS>MOLECULE
3AX
   11    11     1     0     0
SMALL
No Charge or Current Charge


@<TRIPOS>ATOM
      1 N2           2.0920     0.0020     0.0820 nv         1 3AX      -1.046000
      2 C1           0.7340    -0.0640     0.0240 cc         1 3AX       0.206000
      3 N1          -0.1030     1.0410    -0.0300 na         1 3AX      -0.043200
      4 N3          -1.4530     0.7040    -0.0820 nc         1 3AX      -0.528800
      5 C3          -1.4180    -0.6190    -0.0580 cd         1 3AX       0.266900
      6 C2          -0.1020    -1.1270     0.0070 cd         1 3AX      -0.292000
      7 H1           2.6470    -0.8520     0.0170 hn         1 3AX       0.447500
      8 H2           2.5800     0.8910    -0.0340 hn         1 3AX       0.447500
      9 H3           0.2020     2.0100    -0.0310 hn         1 3AX       0.365000
     10 H4          -2.3460    -1.1760    -0.0890 h4         1 3AX       0.033100
     11 H5           0.1800    -2.1720     0.0380 ha         1 3AX       0.144000
@<TRIPOS>BOND
     1     1     2 1   
     2     1     7 1   
     3     1     8 1   
     4     2     3 1   
     5     2     6 2   
     6     3     4 1   
     7     3     9 1   
     8     4     5 2   
     9     5     6 1   
    10     5    10 1   
    11     6    11 1   
@<TRIPOS>SUBSTRUCTURE
     1 3AX         1 TEMP              0 ****  ****    0 ROOT
