@<TRIPOS>MOLECULE
3AY
   16    16     1     0     0
SMALL
bcc


@<TRIPOS>ATOM
      1 NAA          2.3780     1.3030    -0.1470 nv         1 3AY      -0.953500
      2 C6           1.1760     0.6840    -0.0970 ca         1 3AY       0.754200
      3 C5          -0.0150     1.4090    -0.0750 ca         1 3AY      -0.563600
      4 N1           1.1960    -0.6540    -0.1030 nb         1 3AY      -0.873000
      5 C2           0.0100    -1.2580    -0.0930 ca         1 3AY       0.954900
      6 NAH          0.0220    -2.6150    -0.1450 nv         1 3AY      -0.939500
      7 N3          -1.1870    -0.6760    -0.0700 nb         1 3AY      -0.873000
      8 C4          -1.1920     0.6610    -0.0640 ca         1 3AY       0.754200
      9 NAI         -2.4070     1.2580    -0.0810 nv         1 3AY      -0.953500
     10 HAA1         2.4320     2.2810     0.0810 hn         1 3AY       0.423800
     11 HAA2         3.1940     0.7580     0.0750 hn         1 3AY       0.423800
     12 H5          -0.0250     2.4910    -0.0640 ha         1 3AY       0.143000
     13 HAH1        -0.8210    -3.0950     0.1190 hn         1 3AY       0.426800
     14 HAH2         0.8810    -3.0780     0.0990 hn         1 3AY       0.426800
     15 HAI1        -2.4730     2.2340     0.1510 hn         1 3AY       0.423800
     16 HAI2        -3.2050     0.6970     0.1660 hn         1 3AY       0.423800
@<TRIPOS>BOND
     1     1     2 1   
     2     1    10 1   
     3     1    11 1   
     4     2     3 ar  
     5     2     4 ar  
     6     3     8 ar  
     7     3    12 1   
     8     4     5 ar  
     9     5     6 1   
    10     5     7 ar  
    11     6    13 1   
    12     6    14 1   
    13     7     8 ar  
    14     8     9 1   
    15     9    15 1   
    16     9    16 1   
@<TRIPOS>SUBSTRUCTURE
     1 3AY         1 TEMP              0 ****  ****    0 ROOT
