@<TRIPOS>MOLECULE
3AY
   16    16     1     0     0
SMALL
No Charge or Current Charge


@<TRIPOS>ATOM
      1 NAA          2.3660     1.3040    -0.1260 nv         1 3AY      -1.063900
      2 C6           1.1710     0.6780    -0.1160 ca         1 3AY       0.425900
      3 C5          -0.0150     1.4010    -0.0940 ca         1 3AY      -0.415000
      4 N1           1.2060    -0.6560    -0.1220 nb         1 3AY      -0.347000
      5 C2           0.0100    -1.2550    -0.1100 ca         1 3AY       0.428900
      6 NAH          0.0230    -2.6050    -0.1140 nv         1 3AY      -1.049900
      7 N3          -1.1970    -0.6790    -0.0890 nb         1 3AY      -0.347000
      8 C4          -1.1880     0.6560    -0.0820 ca         1 3AY       0.425900
      9 NAI         -2.3940     1.2580    -0.0600 nv         1 3AY      -1.063900
     10 HAA1         2.3990     2.2910     0.1130 hn         1 3AY       0.479000
     11 HAA2         3.2000     0.7550     0.0700 hn         1 3AY       0.479000
     12 H5          -0.0260     2.4850    -0.0900 ha         1 3AY       0.125000
     13 HAH1        -0.8370    -3.0910     0.1270 hn         1 3AY       0.482000
     14 HAH2         0.8960    -3.0790     0.1020 hn         1 3AY       0.482000
     15 HAI1        -2.4390     2.2450     0.1810 hn         1 3AY       0.479000
     16 HAI2        -3.2110     0.6930     0.1600 hn         1 3AY       0.479000
@<TRIPOS>BOND
     1     1     2 1   
     2     1    10 1   
     3     1    11 1   
     4     2     3 ar  
     5     2     4 ar  
     6     3     8 ar  
     7     3    12 1   
     8     4     5 ar  
     9     5     6 1   
    10     5     7 ar  
    11     6    13 1   
    12     6    14 1   
    13     7     8 ar  
    14     8     9 1   
    15     9    15 1   
    16     9    16 1   
@<TRIPOS>SUBSTRUCTURE
     1 3AY         1 TEMP              0 ****  ****    0 ROOT
