@<TRIPOS>MOLECULE
3AZ
   19    19     1     0     0
SMALL
No Charge or Current Charge


@<TRIPOS>ATOM
      1 C           -2.2830    -0.5570    -0.0580 c          1 3AZ       0.711600
      2 N            3.3010    -1.2740    -0.7400 n8         1 3AZ      -0.983200
      3 O           -2.3130    -1.7710     0.0890 o          1 3AZ      -0.723000
      4 C1           1.5030     0.0680     0.2920 ca         1 3AZ      -0.132300
      5 C2           0.2530    -0.5810     0.2220 ca         1 3AZ      -0.058000
      6 C3          -0.9400     0.1520     0.0160 ca         1 3AZ      -0.140600
      7 C4          -0.8540     1.5570    -0.1190 ca         1 3AZ      -0.082000
      8 C5           0.3900     2.2080    -0.0490 ca         1 3AZ      -0.153000
      9 C6           1.5640     1.4680     0.1550 ca         1 3AZ      -0.138000
     10 OXT         -3.2880     0.1100    -0.2600 o          1 3AZ      -0.723000
     11 HN           3.5340    -0.4850    -1.3510 hn         1 3AZ       0.380500
     12 HNA          4.2060    -1.7210    -0.5550 hn         1 3AZ       0.380500
     13 H2           0.2160    -1.6640     0.3260 ha         1 3AZ       0.141000
     14 H4          -1.7520     2.1510    -0.2770 ha         1 3AZ       0.124000
     15 H5           0.4420     3.2890    -0.1540 ha         1 3AZ       0.082000
     16 H6           2.5210     1.9810     0.2090 ha         1 3AZ       0.076000
     17 HA           2.5680    -1.5760     1.2030 h1         1 3AZ       0.015200
     18 HAA          3.5420    -0.1020     0.9810 h1         1 3AZ       0.015200
     19 CA           2.7730    -0.7380     0.5230 c3         1 3AZ       0.206100
@<TRIPOS>BOND
     1     1     3 1   
     2     1     6 1   
     3     1    10 1   
     4     2    11 1   
     5     2    12 1   
     6     2    19 1   
     7     4     5 ar  
     8     4     9 ar  
     9     4    19 1   
    10     5     6 ar  
    11     5    13 1   
    12     6     7 ar  
    13     7     8 ar  
    14     7    14 1   
    15     8     9 ar  
    16     8    15 1   
    17     9    16 1   
    18    17    19 1   
    19    18    19 1   
@<TRIPOS>SUBSTRUCTURE
     1 3AZ         1 TEMP              0 ****  ****    0 ROOT
