@<TRIPOS>MOLECULE
3AZ
   19    19     1     0     0
SMALL
abcg2


@<TRIPOS>ATOM
      1 C           -2.1500    -0.6120    -0.2340 c          1 3AZ       0.711600
      2 N            3.0020    -1.6270    -0.5200 n8         1 3AZ      -0.983200
      3 O           -2.0610    -1.8550    -0.2510 o          1 3AZ      -0.723000
      4 C1           1.5570     0.1920     0.2670 ca         1 3AZ      -0.132300
      5 C2           0.3610    -0.4990     0.0900 ca         1 3AZ      -0.058000
      6 C3          -0.8530     0.1670    -0.0470 ca         1 3AZ      -0.140600
      7 C4          -0.8600     1.5610    -0.0110 ca         1 3AZ      -0.082000
      8 C5           0.3220     2.2640     0.1600 ca         1 3AZ      -0.153000
      9 C6           1.5260     1.5830     0.2960 ca         1 3AZ      -0.138000
     10 OXT         -3.1930     0.0610    -0.3550 o          1 3AZ      -0.723000
     11 HN           3.1050    -1.2370    -1.4490 hn         1 3AZ       0.380500
     12 HNA          3.8610    -2.1290    -0.3330 hn         1 3AZ       0.380500
     13 H2           0.3770    -1.5800     0.0530 ha         1 3AZ       0.141000
     14 H4          -1.7950     2.0940    -0.1230 ha         1 3AZ       0.124000
     15 H5           0.3110     3.3460     0.1820 ha         1 3AZ       0.082000
     16 H6           2.4480     2.1390     0.4240 ha         1 3AZ       0.076000
     17 HA           2.8830    -0.9900     1.4440 h1         1 3AZ       0.015200
     18 HAA          3.6820     0.1810     0.4180 h1         1 3AZ       0.015200
     19 CA           2.8600    -0.5470     0.4430 c3         1 3AZ       0.206100
@<TRIPOS>BOND
     1     1     3 1   
     2     1     6 1   
     3     1    10 1   
     4     2    11 1   
     5     2    12 1   
     6     2    19 1   
     7     4     5 ar  
     8     4     9 ar  
     9     4    19 1   
    10     5     6 ar  
    11     5    13 1   
    12     6     7 ar  
    13     7     8 ar  
    14     7    14 1   
    15     8     9 ar  
    16     8    15 1   
    17     9    16 1   
    18    17    19 1   
    19    18    19 1   
@<TRIPOS>SUBSTRUCTURE
     1 3AZ         1 TEMP              0 ****  ****    0 ROOT
