@<TRIPOS>MOLECULE
3B0
   16    16     1     0     0
SMALL
abcg2


@<TRIPOS>ATOM
      1 C01          1.7920     1.2220    -0.0390 ca         1 3B0      -0.246000
      2 F01         -2.2930     1.0400     0.6860 f          1 3B0      -0.116667
      3 F02         -2.2720     0.0690    -1.2290 f          1 3B0      -0.116667
      4 C02         -0.2810     0.0280     0.0270 ca         1 3B0      -0.328300
      5 C03          0.4220     1.2370    -0.0070 ca         1 3B0       0.020000
      6 C04         -1.7660     0.0040     0.0170 c3         1 3B0       0.372300
      7 F           -2.2630    -1.1120     0.5660 f          1 3B0      -0.116667
      8 C05          0.4610    -1.1410     0.0210 ca         1 3B0       0.447900
      9 N01          1.7840    -1.1750    -0.0080 nb         1 3B0      -0.757000
     10 C            2.4550    -0.0220    -0.0380 ca         1 3B0       0.637900
     11 N            3.8010    -0.0920    -0.1010 nv         1 3B0      -1.061900
     12 H1           2.3570     2.1440    -0.0600 ha         1 3B0       0.127000
     13 H2          -0.0980     2.1870    -0.0040 ha         1 3B0       0.130000
     14 H3          -0.0280    -2.1100     0.0460 h4         1 3B0       0.032100
     15 H4           4.2400    -0.9740     0.1000 hn         1 3B0       0.488000
     16 H5           4.3480     0.7280     0.0990 hn         1 3B0       0.488000
@<TRIPOS>BOND
     1     1     5 ar  
     2     1    10 ar  
     3     1    12 1   
     4     2     6 1   
     5     3     6 1   
     6     4     5 ar  
     7     4     6 1   
     8     4     8 ar  
     9     5    13 1   
    10     6     7 1   
    11     8     9 ar  
    12     8    14 1   
    13     9    10 ar  
    14    10    11 1   
    15    11    15 1   
    16    11    16 1   
@<TRIPOS>SUBSTRUCTURE
     1 3B0         1 TEMP              0 ****  ****    0 ROOT
