@<TRIPOS>MOLECULE
3B0
   16    16     1     0     0
SMALL
No Charge or Current Charge


@<TRIPOS>ATOM
      1 C01          1.8230     1.2720    -0.0020 ca         1 3B0      -0.246000
      2 F01         -2.3630     1.1440     0.4000 f          1 3B0      -0.116667
      3 F02         -2.2790    -0.3510    -1.1740 f          1 3B0      -0.116667
      4 C02         -0.2590     0.0670     0.0020 ca         1 3B0      -0.328300
      5 C03          0.4230     1.3000     0.0430 ca         1 3B0       0.020000
      6 C04         -1.7790    -0.0200     0.0370 c3         1 3B0       0.372300
      7 F           -2.2050    -0.9590     0.9110 f          1 3B0      -0.116667
      8 C05          0.4930    -1.1190    -0.0910 ca         1 3B0       0.447900
      9 N01          1.8440    -1.1370    -0.1340 nb         1 3B0      -0.757000
     10 C            2.4560     0.0340    -0.0920 ca         1 3B0       0.637900
     11 N            3.7780    -0.1170    -0.1340 nv         1 3B0      -1.061900
     12 H1           2.4000     2.1900     0.0270 ha         1 3B0       0.127000
     13 H2          -0.1060     2.2500     0.1070 ha         1 3B0       0.130000
     14 H3          -0.0000    -2.0900    -0.1330 h4         1 3B0       0.032100
     15 H4           4.0920    -1.0620     0.0510 hn         1 3B0       0.488000
     16 H5           4.3430     0.6270     0.2590 hn         1 3B0       0.488000
@<TRIPOS>BOND
     1     1     5 ar  
     2     1    10 ar  
     3     1    12 1   
     4     2     6 1   
     5     3     6 1   
     6     4     5 ar  
     7     4     6 1   
     8     4     8 ar  
     9     5    13 1   
    10     6     7 1   
    11     8     9 ar  
    12     8    14 1   
    13     9    10 ar  
    14    10    11 1   
    15    11    15 1   
    16    11    16 1   
@<TRIPOS>SUBSTRUCTURE
     1 3B0         1 TEMP              0 ****  ****    0 ROOT
