@<TRIPOS>MOLECULE
3B1
   29    30     1     0     0
SMALL
No Charge or Current Charge


@<TRIPOS>ATOM
      1 C10          2.9360     0.8900    -1.3780 ca         1 3B1      -0.113000
      2 C01          1.7250     0.2170    -1.1400 ca         1 3B1      -0.087000
      3 N01          0.2640    -3.4100    -0.5210 n1         1 3B1      -0.454000
      4 C02          3.8190     1.1460    -0.3160 ca         1 3B1      -0.099000
      5 C03         -3.6420    -0.0100    -0.3420 c6         1 3B1       0.153100
      6 C04          1.3870    -0.2070     0.1640 ca         1 3B1      -0.101300
      7 C05         -2.4420    -0.8480     0.1890 c6         1 3B1       0.121300
      8 N           -1.1270    -0.1610    -0.0540 n3         1 3B1      -0.707600
      9 C06          3.4900     0.7290     0.9840 ca         1 3B1      -0.113000
     10 C07         -2.4010     2.0310    -0.0550 c6         1 3B1       0.153100
     11 C08          0.1840    -2.3170    -0.1160 c1         1 3B1       0.303900
     12 C09          0.0650    -0.9400     0.4290 c3         1 3B1       0.297900
     13 O           -3.6240     1.3160     0.2350 os         1 3B1      -0.447000
     14 C11          2.2800     0.0560     1.2250 ca         1 3B1      -0.087000
     15 C           -1.1720     1.2410     0.4830 c6         1 3B1       0.121300
     16 H1           3.1880     1.2140    -2.3850 ha         1 3B1       0.116500
     17 H2           1.0450     0.0270    -1.9670 ha         1 3B1       0.122000
     18 H3           4.7560     1.6680    -0.5010 ha         1 3B1       0.115000
     19 H5          -4.5880    -0.5040    -0.0810 h1         1 3B1       0.054200
     20 H6          -2.5870    -1.0250     1.2650 h1         1 3B1       0.048950
     21 H7          -2.4700    -1.8290    -0.3060 h1         1 3B1       0.048950
     22 H9           4.1740     0.9280     1.8070 ha         1 3B1       0.116500
     23 H10         -2.3100     2.1710    -1.1420 h1         1 3B1       0.054200
     24 H11         -2.4430     3.0240     0.4150 h1         1 3B1       0.054200
     25 H12         -0.0310    -1.0610     1.5170 h1         1 3B1       0.053700
     26 H13          2.0370    -0.2600     2.2370 ha         1 3B1       0.122000
     27 H14         -1.2170     1.2280     1.5820 h1         1 3B1       0.048950
     28 H15         -0.2650     1.7980     0.2060 h1         1 3B1       0.048950
     29 H4          -3.5890     0.0690    -1.4380 h1         1 3B1       0.054200
@<TRIPOS>BOND
     1     1     2 ar  
     2     1     4 ar  
     3     1    16 1   
     4     2     6 ar  
     5     2    17 1   
     6     3    11 3   
     7     4     9 ar  
     8     4    18 1   
     9     5     7 1   
    10     5    13 1   
    11     5    19 1   
    12     5    29 1   
    13     6    12 1   
    14     6    14 ar  
    15     7     8 1   
    16     7    20 1   
    17     7    21 1   
    18     8    12 1   
    19     8    15 1   
    20     9    14 ar  
    21     9    22 1   
    22    10    13 1   
    23    10    15 1   
    24    10    23 1   
    25    10    24 1   
    26    11    12 1   
    27    12    25 1   
    28    14    26 1   
    29    15    27 1   
    30    15    28 1   
@<TRIPOS>SUBSTRUCTURE
     1 3B1         1 TEMP              0 ****  ****    0 ROOT
