@<TRIPOS>MOLECULE
3B1
   29    30     1     0     0
SMALL
bcc


@<TRIPOS>ATOM
      1 C10          2.8600     0.8460    -1.3840 ca         1 3B1      -0.131000
      2 C01          1.6550     0.2170    -1.1110 ca         1 3B1      -0.105000
      3 N01          0.1710    -3.2400    -0.5850 n1         1 3B1      -0.364800
      4 C02          3.7640     1.0990    -0.3590 ca         1 3B1      -0.117000
      5 C03         -3.5110    -0.0170    -0.3980 c6         1 3B1       0.129900
      6 C04          1.3480    -0.1610     0.1930 ca         1 3B1      -0.101300
      7 C05         -2.3690    -0.8240     0.1880 c6         1 3B1       0.121300
      8 N           -1.1080    -0.1230    -0.0290 n3         1 3B1      -0.707600
      9 C06          3.4590     0.7220     0.9410 ca         1 3B1      -0.131000
     10 C07         -2.3600     1.9610    -0.0380 c6         1 3B1       0.129900
     11 C08          0.0900    -2.1920    -0.1180 c1         1 3B1       0.214700
     12 C09          0.0330    -0.8550     0.4910 c3         1 3B1       0.297900
     13 O           -3.5760     1.2760     0.1580 os         1 3B1      -0.400600
     14 C11          2.2510     0.0920     1.2160 ca         1 3B1      -0.105000
     15 C           -1.1870     1.2090     0.5590 c6         1 3B1       0.121300
     16 H1           3.0950     1.1400    -2.3990 ha         1 3B1       0.134500
     17 H2           0.9480     0.0280    -1.9090 ha         1 3B1       0.140000
     18 H3           4.7030     1.5930    -0.5750 ha         1 3B1       0.133000
     19 H5          -4.4580    -0.5140    -0.1870 h1         1 3B1       0.054200
     20 H6          -2.5500    -1.0080     1.2590 h1         1 3B1       0.048950
     21 H7          -2.3480    -1.7940    -0.3130 h1         1 3B1       0.048950
     22 H9           4.1570     0.9200     1.7440 ha         1 3B1       0.134500
     23 H10         -2.1780     2.1220    -1.1100 h1         1 3B1       0.054200
     24 H11         -2.4530     2.9380     0.4380 h1         1 3B1       0.054200
     25 H12         -0.0410    -1.0210     1.5800 h1         1 3B1       0.053700
     26 H13          2.0080    -0.1950     2.2320 ha         1 3B1       0.140000
     27 H14         -1.2960     1.1580     1.6550 h1         1 3B1       0.048950
     28 H15         -0.2760     1.7680     0.3460 h1         1 3B1       0.048950
     29 H4          -3.3910     0.0370    -1.4890 h1         1 3B1       0.054200
@<TRIPOS>BOND
     1     1     2 ar  
     2     1     4 ar  
     3     1    16 1   
     4     2     6 ar  
     5     2    17 1   
     6     3    11 3   
     7     4     9 ar  
     8     4    18 1   
     9     5     7 1   
    10     5    13 1   
    11     5    19 1   
    12     5    29 1   
    13     6    12 1   
    14     6    14 ar  
    15     7     8 1   
    16     7    20 1   
    17     7    21 1   
    18     8    12 1   
    19     8    15 1   
    20     9    14 ar  
    21     9    22 1   
    22    10    13 1   
    23    10    15 1   
    24    10    23 1   
    25    10    24 1   
    26    11    12 1   
    27    12    25 1   
    28    14    26 1   
    29    15    27 1   
    30    15    28 1   
@<TRIPOS>SUBSTRUCTURE
     1 3B1         1 TEMP              0 ****  ****    0 ROOT
