@<TRIPOS>MOLECULE
3B2
   75    76     1     0     0
SMALL
abcg2


@<TRIPOS>ATOM
      1 C10        100.9960   117.1930    16.9060 cc         1 3B2       0.275300
      2 C13         99.3820   119.6990    15.8380 c3         1 3B2      -0.044400
      3 C17        101.3080   122.7380    17.1150 c3         1 3B2       0.086000
      4 C20        100.1600   124.0320    14.1210 c          1 3B2       0.603100
      5 C22         98.7460   123.5380    14.3620 c3         1 3B2      -0.179400
      6 C02        100.2400   110.5800    14.9930 cc         1 3B2       0.196300
      7 C03        100.5480   110.6990    16.3090 cd         1 3B2      -0.242000
      8 C04        101.1030   112.0020    16.4310 cd         1 3B2       0.275300
      9 C05        101.6000   112.6850    17.6580 c3         1 3B2       0.019300
     10 S06        100.2750   113.0040    18.8750 ss         1 3B2      -0.423000
     11 C07         99.2130   114.1560    17.9190 c3         1 3B2       0.037300
     12 C08         99.8840   115.4390    17.6190 cd         1 3B2       0.171300
     13 C09        100.5040   115.9180    16.5120 cc         1 3B2      -0.207000
     14 C11        101.7320   118.1940    16.0880 c3         1 3B2       0.002300
     15 S12        100.6680   118.9540    14.8040 ss         1 3B2      -0.385000
     16 C14         99.7870   120.8440    16.7560 c          1 3B2       0.594100
     17 O15         99.0960   121.1040    17.7420 o          1 3B2      -0.594100
     18 N16        100.8750   121.5460    16.4100 ns         1 3B2      -0.516900
     19 C18        100.6280   124.0100    16.6010 c3         1 3B2       0.084000
     20 N19        100.9290   124.2750    15.2040 ns         1 3B2      -0.521900
     21 O21        100.5910   124.2290    12.9810 o          1 3B2      -0.627100
     22 C23         98.0180   123.1790    13.0700 c3         1 3B2       0.116000
     23 N24         96.6980   122.6440    13.3450 ns         1 3B2      -0.507900
     24 C25         96.4340   121.3360    13.4680 c          1 3B2       0.590100
     25 O26         97.2840   120.4540    13.2900 o          1 3B2      -0.694100
     26 C27         94.9890   121.0050    13.8490 c3         1 3B2       0.146300
     27 O28         94.2170   122.1860    13.7900 oh         1 3B2      -0.812000
     28 C29         94.9000   120.3170    15.2500 c3         1 3B2      -0.092000
     29 C30         95.4910   118.9040    15.2140 c3         1 3B2      -0.072100
     30 C31         95.6060   121.1690    16.3090 c3         1 3B2      -0.072100
     31 C32         93.4180   120.2210    15.6500 c3         1 3B2       0.242600
     32 O33         92.6470   119.5170    14.6860 os         1 3B2      -0.602400
     33 P34         91.2630   120.2400    14.0880 p5         1 3B2       1.295900
     34 O35         91.7550   121.5590    13.4570 o          1 3B2      -0.899833
     35 O36         90.3450   120.4700    15.2790 o          1 3B2      -0.899833
     36 O37         90.7720   119.2290    13.0700 o          1 3B2      -0.899833
     37 N38        100.6890   117.4600    18.1520 nd         1 3B2      -0.346300
     38 O39         99.9790   116.3460    18.6170 os         1 3B2      -0.083700
     39 N40        101.1230   112.6250    15.2780 nc         1 3B2      -0.354300
     40 O41        100.5760   111.7220    14.3530 os         1 3B2      -0.091700
     41 H1          98.6430   120.0790    15.1260 h1         1 3B2       0.137200
     42 H2          98.8930   118.9400    16.4460 h1         1 3B2       0.137200
     43 H3         101.0830   122.6190    18.1750 h1         1 3B2       0.052200
     44 H4         102.3880   122.8240    17.0000 h1         1 3B2       0.052200
     45 H5          98.7680   122.6670    15.0140 hc         1 3B2       0.067700
     46 H6          98.1910   124.3110    14.9020 hc         1 3B2       0.067700
     47 H7          98.7260   109.8440    13.6930 hc         1 3B2       0.063033
     48 H8         100.3340   109.1790    13.3940 hc         1 3B2       0.063033
     49 H9          99.4070   108.6450    14.8090 hc         1 3B2       0.063033
     50 H11        102.3090   112.0510    18.1910 h1         1 3B2       0.090200
     51 H12        102.0950   113.6200    17.4010 h1         1 3B2       0.090200
     52 H13         98.3340   114.3110    18.5430 h1         1 3B2       0.102700
     53 H14         98.9050   113.6750    16.9920 h1         1 3B2       0.102700
     54 H15        100.6060   115.4330    15.5580 ha         1 3B2       0.170000
     55 H16        102.5410   117.7190    15.5340 h1         1 3B2       0.080200
     56 H17        102.1500   118.9730    16.7240 h1         1 3B2       0.080200
     57 H18        101.3640   121.2680    15.5720 hn         1 3B2       0.330500
     58 H19        100.9720   124.8560    17.1990 h1         1 3B2       0.061200
     59 H20         99.5510   123.9360    16.7320 h1         1 3B2       0.061200
     60 H21        101.8670   124.5890    14.9920 hn         1 3B2       0.294500
     61 H22         98.5810   122.4290    12.5190 h1         1 3B2       0.055700
     62 H23         97.9120   124.0560    12.4330 h1         1 3B2       0.055700
     63 H24         95.9210   123.2680    13.5060 hn         1 3B2       0.357500
     64 H25         94.6370   120.2820    13.1050 h1         1 3B2       0.077700
     65 H26         93.2400   121.9350    13.6550 ho         1 3B2       0.571000
     66 H27         96.5450   118.9210    14.9520 hc         1 3B2       0.019867
     67 H28         95.3820   118.4350    16.1950 hc         1 3B2       0.019867
     68 H29         94.9680   118.2870    14.4820 hc         1 3B2       0.019867
     69 H30         95.2420   122.1980    16.2860 hc         1 3B2       0.019867
     70 H31         95.4250   120.7650    17.3080 hc         1 3B2       0.019867
     71 H32         96.6850   121.1850    16.1520 hc         1 3B2       0.019867
     72 H33         93.0160   121.2240    15.8060 h1         1 3B2       0.007700
     73 H34         93.3610   119.6920    16.6070 h1         1 3B2       0.007700
     74 C01         99.6420   109.4990    14.1760 c3         1 3B2      -0.137400
     75 H10        100.4020   109.9710    17.0880 ha         1 3B2       0.153000
@<TRIPOS>BOND
     1     1    13 1   
     2     1    14 1   
     3     1    37 2   
     4     2    15 1   
     5     2    16 1   
     6     2    41 1   
     7     2    42 1   
     8     3    18 1   
     9     3    19 1   
    10     3    43 1   
    11     3    44 1   
    12     4     5 1   
    13     4    20 1   
    14     4    21 2   
    15     5    22 1   
    16     5    45 1   
    17     5    46 1   
    18     6     7 2   
    19     6    40 1   
    20     6    74 1   
    21     7     8 1   
    22     7    75 1   
    23     8     9 1   
    24     8    39 2   
    25     9    10 1   
    26     9    50 1   
    27     9    51 1   
    28    10    11 1   
    29    11    12 1   
    30    11    52 1   
    31    11    53 1   
    32    12    13 2   
    33    12    38 1   
    34    13    54 1   
    35    14    15 1   
    36    14    55 1   
    37    14    56 1   
    38    16    17 2   
    39    16    18 1   
    40    18    57 1   
    41    19    20 1   
    42    19    58 1   
    43    19    59 1   
    44    20    60 1   
    45    22    23 1   
    46    22    61 1   
    47    22    62 1   
    48    23    24 1   
    49    23    63 1   
    50    24    25 2   
    51    24    26 1   
    52    26    27 1   
    53    26    28 1   
    54    26    64 1   
    55    27    65 1   
    56    28    29 1   
    57    28    30 1   
    58    28    31 1   
    59    29    66 1   
    60    29    67 1   
    61    29    68 1   
    62    30    69 1   
    63    30    70 1   
    64    30    71 1   
    65    31    32 1   
    66    31    72 1   
    67    31    73 1   
    68    32    33 1   
    69    33    34 1   
    70    33    35 1   
    71    33    36 1   
    72    37    38 1   
    73    39    40 1   
    74    47    74 1   
    75    48    74 1   
    76    49    74 1   
@<TRIPOS>SUBSTRUCTURE
     1 3B2         1 TEMP              0 ****  ****    0 ROOT
