@<TRIPOS>MOLECULE
3B2
   75    76     1     0     0
SMALL
No Charge or Current Charge


@<TRIPOS>ATOM
      1 C10        100.3080   117.5710    17.7880 cc         1 3B2       0.275300
      2 C13        100.5380   119.7650    15.3890 c3         1 3B2      -0.044400
      3 C17        101.9740   123.3090    15.9600 c3         1 3B2       0.086000
      4 C20         99.9130   123.9700    13.4280 c          1 3B2       0.603100
      5 C22         98.8840   122.9270    13.8840 c3         1 3B2      -0.179400
      6 C02         99.5250   112.1080    14.7060 cc         1 3B2       0.196300
      7 C03         98.7840   112.1710    15.8410 cd         1 3B2      -0.242000
      8 C04         99.5830   112.8260    16.7940 cd         1 3B2       0.275300
      9 C05         99.2040   113.1510    18.2190 c3         1 3B2       0.019300
     10 S06         97.4690   113.7840    18.4440 ss         1 3B2      -0.423000
     11 C07         97.4850   115.2590    17.3130 c3         1 3B2       0.037300
     12 C08         98.5500   116.2750    17.6350 cd         1 3B2       0.171300
     13 C09         99.7470   116.5160    17.0490 cc         1 3B2      -0.207000
     14 C11        101.6630   118.1590    17.4800 c3         1 3B2       0.002300
     15 S12        101.9040   118.5270    15.6730 ss         1 3B2      -0.385000
     16 C14        100.7720   121.0980    16.1080 c          1 3B2       0.594100
     17 O15        100.2380   121.3760    17.1710 o          1 3B2      -0.594100
     18 N16        101.6260   121.9690    15.4660 ns         1 3B2      -0.516900
     19 C18        100.8570   124.3680    15.7750 c3         1 3B2       0.084000
     20 N19        100.5990   124.7150    14.3650 ns         1 3B2      -0.521900
     21 O21        100.1190   124.1790    12.2430 o          1 3B2      -0.627100
     22 C23         97.4540   123.3450    13.4970 c3         1 3B2       0.116000
     23 N24         96.4670   122.3870    13.9970 ns         1 3B2      -0.507900
     24 C25         96.2730   121.1100    13.5190 c          1 3B2       0.590100
     25 O26         96.8240   120.7160    12.4960 o          1 3B2      -0.694100
     26 C27         95.2410   120.2540    14.3430 c3         1 3B2       0.146300
     27 O28         94.2420   121.0840    15.0030 oh         1 3B2      -0.812000
     28 C29         95.9200   119.2820    15.3830 c3         1 3B2      -0.092000
     29 C30         96.8620   118.2860    14.6450 c3         1 3B2      -0.072100
     30 C31         96.7730   120.0810    16.4110 c3         1 3B2      -0.072100
     31 C32         94.8570   118.4610    16.1860 c3         1 3B2       0.242600
     32 O33         93.9750   117.7640    15.2930 os         1 3B2      -0.602400
     33 P34         92.4060   118.1160    15.2980 p5         1 3B2       1.295900
     34 O35         92.2390   119.5770    15.0660 o          1 3B2      -0.899833
     35 O36         91.8160   117.7310    16.6080 o          1 3B2      -0.899833
     36 O37         91.7410   117.3560    14.2060 o          1 3B2      -0.899833
     37 N38         99.5340   117.9860    18.7770 nd         1 3B2      -0.346300
     38 O39         98.3700   117.1380    18.6830 os         1 3B2      -0.083700
     39 N40        100.7670   113.1620    16.3110 nc         1 3B2      -0.354300
     40 O41        100.7420   112.6990    14.9420 os         1 3B2      -0.091700
     41 H1         100.4410   119.9700    14.3160 h1         1 3B2       0.137200
     42 H2          99.5850   119.3580    15.7430 h1         1 3B2       0.137200
     43 H3         102.2160   123.2320    17.0280 h1         1 3B2       0.052200
     44 H4         102.8810   123.6480    15.4420 h1         1 3B2       0.052200
     45 H5          99.1150   121.9830    13.3790 hc         1 3B2       0.067700
     46 H6          98.9080   122.7680    14.9620 hc         1 3B2       0.067700
     47 H7          99.2590   112.3200    12.5850 hc         1 3B2       0.063033
     48 H8          99.9560   110.7650    13.0860 hc         1 3B2       0.063033
     49 H9          98.2270   111.0840    13.3310 hc         1 3B2       0.063033
     50 H11         99.3230   112.2410    18.8200 h1         1 3B2       0.090200
     51 H12         99.9050   113.8970    18.6140 h1         1 3B2       0.090200
     52 H13         96.5060   115.7510    17.3670 h1         1 3B2       0.102700
     53 H14         97.6230   114.9190    16.2790 h1         1 3B2       0.102700
     54 H15        100.1940   116.0140    16.2000 ha         1 3B2       0.170000
     55 H16        102.4350   117.4490    17.8010 h1         1 3B2       0.080200
     56 H17        101.7980   119.0840    18.0550 h1         1 3B2       0.080200
     57 H18        102.0570   121.6430    14.6090 hn         1 3B2       0.330500
     58 H19        101.1800   125.2860    16.2830 h1         1 3B2       0.061200
     59 H20         99.9350   124.0460    16.2740 h1         1 3B2       0.061200
     60 H21        101.1820   125.4410    13.9660 hn         1 3B2       0.294500
     61 H22         97.3650   123.4190    12.4050 h1         1 3B2       0.055700
     62 H23         97.2310   124.3310    13.9260 h1         1 3B2       0.055700
     63 H24         95.8910   122.6300    14.7970 hn         1 3B2       0.357500
     64 H25         94.7390   119.6310    13.5900 h1         1 3B2       0.077700
     65 H26         93.4040   120.4910    15.0530 ho         1 3B2       0.571000
     66 H27         97.7090   118.8020    14.1780 hc         1 3B2       0.019867
     67 H28         97.2760   117.5490    15.3420 hc         1 3B2       0.019867
     68 H29         96.3250   117.7400    13.8600 hc         1 3B2       0.019867
     69 H30         96.1560   120.7890    16.9760 hc         1 3B2       0.019867
     70 H31         97.2470   119.4040    17.1330 hc         1 3B2       0.019867
     71 H32         97.5700   120.6470    15.9170 hc         1 3B2       0.019867
     72 H33         94.2970   119.1380    16.8470 h1         1 3B2       0.007700
     73 H34         95.3710   117.7410    16.8360 h1         1 3B2       0.007700
     74 C01         99.2250   111.5380    13.3520 c3         1 3B2      -0.137400
     75 H10         97.7780   111.7970    15.9820 ha         1 3B2       0.153000
@<TRIPOS>BOND
     1     1    13 1   
     2     1    14 1   
     3     1    37 2   
     4     2    15 1   
     5     2    16 1   
     6     2    41 1   
     7     2    42 1   
     8     3    18 1   
     9     3    19 1   
    10     3    43 1   
    11     3    44 1   
    12     4     5 1   
    13     4    20 1   
    14     4    21 2   
    15     5    22 1   
    16     5    45 1   
    17     5    46 1   
    18     6     7 2   
    19     6    40 1   
    20     6    74 1   
    21     7     8 1   
    22     7    75 1   
    23     8     9 1   
    24     8    39 2   
    25     9    10 1   
    26     9    50 1   
    27     9    51 1   
    28    10    11 1   
    29    11    12 1   
    30    11    52 1   
    31    11    53 1   
    32    12    13 2   
    33    12    38 1   
    34    13    54 1   
    35    14    15 1   
    36    14    55 1   
    37    14    56 1   
    38    16    17 2   
    39    16    18 1   
    40    18    57 1   
    41    19    20 1   
    42    19    58 1   
    43    19    59 1   
    44    20    60 1   
    45    22    23 1   
    46    22    61 1   
    47    22    62 1   
    48    23    24 1   
    49    23    63 1   
    50    24    25 2   
    51    24    26 1   
    52    26    27 1   
    53    26    28 1   
    54    26    64 1   
    55    27    65 1   
    56    28    29 1   
    57    28    30 1   
    58    28    31 1   
    59    29    66 1   
    60    29    67 1   
    61    29    68 1   
    62    30    69 1   
    63    30    70 1   
    64    30    71 1   
    65    31    32 1   
    66    31    72 1   
    67    31    73 1   
    68    32    33 1   
    69    33    34 1   
    70    33    35 1   
    71    33    36 1   
    72    37    38 1   
    73    39    40 1   
    74    47    74 1   
    75    48    74 1   
    76    49    74 1   
@<TRIPOS>SUBSTRUCTURE
     1 3B2         1 TEMP              0 ****  ****    0 ROOT
