@<TRIPOS>MOLECULE
3B3
   33    34     1     0     0
SMALL
bcc


@<TRIPOS>ATOM
      1 C1          -2.9750     1.5450    -0.0790 ca         1 3B3      -0.087000
      2 C2          -2.4760     2.8200    -0.0920 ca         1 3B3      -0.224300
      3 C3          -1.0910     3.0180    -0.0560 ca         1 3B3       0.407200
      4 N4          -0.2480     2.0190    -0.0320 nb         1 3B3      -0.680000
      5 C4A         -0.7150     0.7610    -0.0310 ca         1 3B3       0.320600
      6 C4B          0.3000    -0.2710    -0.0340 ca         1 3B3       0.220300
      7 N5           1.5750     0.1070    -0.0350 nu         1 3B3      -0.728600
      8 C6           2.6970    -0.7960     0.0160 c3         1 3B3       0.182800
      9 C8A         -0.1100    -1.6030    -0.0420 ca         1 3B3      -0.293000
     10 C9          -1.4560    -1.9160    -0.0500 ca         1 3B3       0.032000
     11 C10         -2.4470    -0.9500    -0.0350 ca         1 3B3      -0.266200
     12 C1A         -2.0940     0.4380    -0.0340 ca         1 3B3      -0.034300
     13 CB           3.9990    -0.0400    -0.2190 c3         1 3B3       0.124100
     14 CA           5.1890    -0.9850    -0.1350 c3         1 3B3       0.122800
     15 N            6.4200    -0.2910    -0.4690 n8         1 3B3      -0.878800
     16 O           -4.6830    -0.6360     0.3140 o          1 3B3      -0.234000
     17 OXT         -4.0230    -2.5780    -0.2560 o          1 3B3      -0.234000
     18 N1          -3.7970    -1.4110     0.0050 no         1 3B3       0.329200
     19 O16          4.1260     1.0590     0.6610 oh         1 3B3      -0.586800
     20 H1          -4.0420     1.4050    -0.1090 ha         1 3B3       0.174000
     21 H2          -3.1450     3.6690    -0.1320 ha         1 3B3       0.148000
     22 H3          -0.6750     4.0190    -0.0530 h4         1 3B3       0.025100
     23 H5           1.7450     1.0990     0.0580 hn         1 3B3       0.483800
     24 H6C1         2.5920    -1.5640    -0.7550 h1         1 3B3       0.051700
     25 H6C2         2.7280    -1.3170     0.9830 h1         1 3B3       0.051700
     26 H8A          0.6120    -2.4060    -0.0290 ha         1 3B3       0.144000
     27 H9          -1.7300    -2.9620    -0.0450 ha         1 3B3       0.163000
     28 HB           3.9740     0.3950    -1.2220 h1         1 3B3       0.103700
     29 HAC1         5.0380    -1.7900    -0.8570 h1         1 3B3       0.032700
     30 HAC2         5.1970    -1.4580     0.8600 h1         1 3B3       0.032700
     31 HN1          6.6210     0.4020     0.2400 hn         1 3B3       0.347300
     32 HN2          7.1910    -0.9440    -0.4430 hn         1 3B3       0.347300
     33 H16          4.1690     0.7260     1.5650 ho         1 3B3       0.400000
@<TRIPOS>BOND
     1     1     2 ar  
     2     1    12 ar  
     3     1    20 1   
     4     2     3 ar  
     5     2    21 1   
     6     3     4 ar  
     7     3    22 1   
     8     4     5 ar  
     9     5     6 ar  
    10     5    12 ar  
    11     6     7 1   
    12     6     9 ar  
    13     7     8 1   
    14     7    23 1   
    15     8    13 1   
    16     8    24 1   
    17     8    25 1   
    18     9    10 ar  
    19     9    26 1   
    20    10    11 ar  
    21    10    27 1   
    22    11    12 ar  
    23    11    18 1   
    24    13    14 1   
    25    13    19 1   
    26    13    28 1   
    27    14    15 1   
    28    14    29 1   
    29    14    30 1   
    30    15    31 1   
    31    15    32 1   
    32    16    18 1   
    33    17    18 1   
    34    19    33 1   
@<TRIPOS>SUBSTRUCTURE
     1 3B3         1 TEMP              0 ****  ****    0 ROOT
