@<TRIPOS>MOLECULE
3B3
   33    34     1     0     0
SMALL
No Charge or Current Charge


@<TRIPOS>ATOM
      1 C1          -2.9700     1.5090     0.1770 ca         1 3B3      -0.069000
      2 C2          -2.4870     2.8260     0.1840 ca         1 3B3      -0.141000
      3 C3          -1.1180     3.0540     0.0050 ca         1 3B3       0.341900
      4 N4          -0.2310     2.0520    -0.1860 nb         1 3B3      -0.680000
      5 C4A         -0.6810     0.7570    -0.1980 ca         1 3B3       0.190000
      6 C4B          0.2350    -0.3180    -0.4120 ca         1 3B3       0.424000
      7 N5           1.5970    -0.0450    -0.6080 nu         1 3B3      -0.922200
      8 C6           2.7340    -0.8810    -0.1750 c3         1 3B3       0.182800
      9 C8A         -0.2100    -1.6460    -0.4470 ca         1 3B3      -0.275000
     10 C9          -1.5630    -1.9460    -0.2540 ca         1 3B3       0.050000
     11 C10         -2.4910    -0.9140    -0.0230 ca         1 3B3      -0.266200
     12 C1A         -2.0600     0.4410    -0.0060 ca         1 3B3       0.031000
     13 CB           4.0940    -0.1600    -0.4110 c3         1 3B3       0.147300
     14 CA           5.2920    -0.9800     0.1540 c3         1 3B3       0.122800
     15 N            6.6070    -0.3370    -0.0920 n8         1 3B3      -0.989200
     16 O           -4.4350    -0.9470     1.2650 o          1 3B3      -0.424000
     17 OXT         -4.4010    -2.1340    -0.5640 o          1 3B3      -0.424000
     18 N1          -3.9080    -1.3000     0.2040 no         1 3B3       0.709200
     19 O16          4.0720     1.1670     0.1750 oh         1 3B3      -0.649000
     20 H1          -4.0360     1.3440     0.3050 ha         1 3B3       0.156000
     21 H2          -3.1620     3.6660     0.3250 ha         1 3B3       0.130000
     22 H3          -0.7170     4.0670     0.0070 h4         1 3B3       0.025100
     23 H5           1.7700     0.9670    -0.5800 hn         1 3B3       0.539000
     24 H6C1         2.7370    -1.8320    -0.7260 h1         1 3B3       0.051700
     25 H6C2         2.6360    -1.1170     0.8940 h1         1 3B3       0.051700
     26 H8A          0.4920    -2.4540    -0.6250 ha         1 3B3       0.126000
     27 H9          -1.8870    -2.9870    -0.2740 ha         1 3B3       0.145000
     28 HB           4.2330    -0.0810    -1.4990 h1         1 3B3       0.103700
     29 HAC1         5.3020    -1.9800    -0.3000 h1         1 3B3       0.032700
     30 HAC2         5.1630    -1.1030     1.2390 h1         1 3B3       0.032700
     31 HN1          6.5760     0.6200     0.2820 hn         1 3B3       0.402500
     32 HN2          7.3260    -0.8000     0.4780 hn         1 3B3       0.402500
     33 H16          3.9550     1.0540     1.1430 ho         1 3B3       0.439000
@<TRIPOS>BOND
     1     1     2 ar  
     2     1    12 ar  
     3     1    20 1   
     4     2     3 ar  
     5     2    21 1   
     6     3     4 ar  
     7     3    22 1   
     8     4     5 ar  
     9     5     6 ar  
    10     5    12 ar  
    11     6     7 1   
    12     6     9 ar  
    13     7     8 1   
    14     7    23 1   
    15     8    13 1   
    16     8    24 1   
    17     8    25 1   
    18     9    10 ar  
    19     9    26 1   
    20    10    11 ar  
    21    10    27 1   
    22    11    12 ar  
    23    11    18 1   
    24    13    14 1   
    25    13    19 1   
    26    13    28 1   
    27    14    15 1   
    28    14    29 1   
    29    14    30 1   
    30    15    31 1   
    31    15    32 1   
    32    16    18 1   
    33    17    18 1   
    34    19    33 1   
@<TRIPOS>SUBSTRUCTURE
     1 3B3         1 TEMP              0 ****  ****    0 ROOT
