@<TRIPOS>MOLECULE
3B4
   32    33     1     0     0
SMALL
No Charge or Current Charge


@<TRIPOS>ATOM
      1 CAJ         -1.8910     0.3140    -0.9330 c6         1 3B4      -0.097400
      2 CAH         -3.3710     0.6490    -1.2460 c6         1 3B4      -0.070900
      3 CAG         -4.3220    -0.4360    -0.6830 c6         1 3B4      -0.074400
      4 CAI         -4.1000    -0.6430     0.8350 c6         1 3B4      -0.070900
      5 CAK         -2.6190    -0.9780     1.1440 c6         1 3B4      -0.097400
      6 CAP         -1.6690     0.1150     0.5920 c6         1 3B4       0.253500
      7 NAL         -0.2800    -0.2760     0.8560 nu         1 3B4      -0.990200
      8 CAN          0.8080     0.5350     0.5630 ca         1 3B4       0.366000
      9 CAE          0.8220     1.8560     1.0460 ca         1 3B4      -0.247000
     10 CAC          1.9000     2.7080     0.7710 ca         1 3B4      -0.084000
     11 CAD          2.9750     2.2360     0.0090 ca         1 3B4      -0.214000
     12 CAF          2.9740     0.9180    -0.4750 ca         1 3B4      -0.044000
     13 CAO          1.8920     0.0470    -0.2020 ca         1 3B4      -0.220600
     14 CAM          1.9210    -1.3620    -0.7520 c          1 3B4       0.721600
     15 OAB          2.6190    -1.5840    -1.7300 o          1 3B4      -0.728000
     16 OAA          1.2660    -2.2360    -0.1970 o          1 3B4      -0.728000
     17 HAJ         -1.5980    -0.5940    -1.4770 hc         1 3B4       0.050700
     18 HAJA        -1.2490     1.1240    -1.3050 hc         1 3B4       0.050700
     19 HAH         -3.6280     1.6260    -0.8130 hc         1 3B4       0.028450
     20 HAHA        -3.5110     0.7410    -2.3310 hc         1 3B4       0.028450
     21 HAG         -5.3660    -0.1500    -0.8720 hc         1 3B4       0.029200
     22 HAGA        -4.1570    -1.3840    -1.2140 hc         1 3B4       0.029200
     23 HAI         -4.3950     0.2650     1.3790 hc         1 3B4       0.028450
     24 HAIA        -4.7490    -1.4510     1.2000 hc         1 3B4       0.028450
     25 HAK         -2.4840    -1.0770     2.2290 hc         1 3B4       0.050700
     26 HAKA        -2.3670    -1.9530     0.7050 hc         1 3B4       0.050700
     27 HAP         -1.9000     1.0600     1.1060 h1         1 3B4       0.035700
     28 HNAL        -0.0450    -1.2460     0.5980 hn         1 3B4       0.548000
     29 HAE         -0.0050     2.2270     1.6450 ha         1 3B4       0.085000
     30 HAC          1.9030     3.7280     1.1490 ha         1 3B4       0.074000
     31 HAD          3.8150     2.8920    -0.2080 ha         1 3B4       0.085000
     32 HAF          3.8230     0.5720    -1.0630 ha         1 3B4       0.123000
@<TRIPOS>BOND
     1     1     2 1   
     2     1     6 1   
     3     1    17 1   
     4     1    18 1   
     5     2     3 1   
     6     2    19 1   
     7     2    20 1   
     8     3     4 1   
     9     3    21 1   
    10     3    22 1   
    11     4     5 1   
    12     4    23 1   
    13     4    24 1   
    14     5     6 1   
    15     5    25 1   
    16     5    26 1   
    17     6     7 1   
    18     6    27 1   
    19     7     8 1   
    20     7    28 1   
    21     8     9 ar  
    22     8    13 ar  
    23     9    10 ar  
    24     9    29 1   
    25    10    11 ar  
    26    10    30 1   
    27    11    12 ar  
    28    11    31 1   
    29    12    13 ar  
    30    12    32 1   
    31    13    14 1   
    32    14    15 1   
    33    14    16 1   
@<TRIPOS>SUBSTRUCTURE
     1 3B4         1 TEMP              0 ****  ****    0 ROOT
