@<TRIPOS>MOLECULE
3B4
   32    33     1     0     0
SMALL
bcc


@<TRIPOS>ATOM
      1 CAJ         -2.1730     0.5410    -0.9920 c6         1 3B4      -0.097400
      2 CAH         -3.6490     0.9220    -0.9180 c6         1 3B4      -0.070900
      3 CAG         -4.4950    -0.2460    -0.4210 c6         1 3B4      -0.074400
      4 CAI         -3.9830    -0.7600     0.9200 c6         1 3B4      -0.070900
      5 CAK         -2.5060    -1.1350     0.8470 c6         1 3B4      -0.097400
      6 CAP         -1.6550     0.0370     0.3600 c6         1 3B4       0.253500
      7 NAL         -0.2720    -0.3710     0.3230 nu         1 3B4      -0.796600
      8 CAN          0.7960     0.4640     0.2230 ca         1 3B4       0.227600
      9 CAE          0.6590     1.8550     0.4100 ca         1 3B4      -0.265000
     10 CAC          1.7530     2.6980     0.3630 ca         1 3B4      -0.102000
     11 CAD          3.0270     2.1980     0.1220 ca         1 3B4      -0.232000
     12 CAF          3.1700     0.8340    -0.0760 ca         1 3B4      -0.062000
     13 CAO          2.0960    -0.0520    -0.0400 ca         1 3B4      -0.220600
     14 CAM          2.3750    -1.5230    -0.2960 c          1 3B4       0.932200
     15 OAB          3.5610    -1.8590    -0.4640 o          1 3B4      -0.833300
     16 OAA          1.3950    -2.3120    -0.3300 o          1 3B4      -0.833300
     17 HAJ         -2.0310    -0.2530    -1.7340 hc         1 3B4       0.050700
     18 HAJA        -1.5790     1.3930    -1.3300 hc         1 3B4       0.050700
     19 HAH         -3.7700     1.7720    -0.2370 hc         1 3B4       0.028450
     20 HAHA        -3.9980     1.2570    -1.8980 hc         1 3B4       0.028450
     21 HAG         -5.5430     0.0520    -0.3380 hc         1 3B4       0.029200
     22 HAGA        -4.4580    -1.0570    -1.1560 hc         1 3B4       0.029200
     23 HAI         -4.1230     0.0130     1.6830 hc         1 3B4       0.028450
     24 HAIA        -4.5670    -1.6240     1.2460 hc         1 3B4       0.028450
     25 HAK         -2.1470    -1.4670     1.8250 hc         1 3B4       0.050700
     26 HAKA        -2.3810    -1.9780     0.1570 hc         1 3B4       0.050700
     27 HAP         -1.7700     0.8440     1.0960 h1         1 3B4       0.035700
     28 HNAL        -0.0440    -1.3260     0.0540 hn         1 3B4       0.492800
     29 HAE         -0.3170     2.2820     0.5990 ha         1 3B4       0.103000
     30 HAC          1.6040     3.7610     0.5140 ha         1 3B4       0.092000
     31 HAD          3.8850     2.8560     0.0860 ha         1 3B4       0.103000
     32 HAF          4.1520     0.4250    -0.2740 ha         1 3B4       0.141000
@<TRIPOS>BOND
     1     1     2 1   
     2     1     6 1   
     3     1    17 1   
     4     1    18 1   
     5     2     3 1   
     6     2    19 1   
     7     2    20 1   
     8     3     4 1   
     9     3    21 1   
    10     3    22 1   
    11     4     5 1   
    12     4    23 1   
    13     4    24 1   
    14     5     6 1   
    15     5    25 1   
    16     5    26 1   
    17     6     7 1   
    18     6    27 1   
    19     7     8 1   
    20     7    28 1   
    21     8     9 ar  
    22     8    13 ar  
    23     9    10 ar  
    24     9    29 1   
    25    10    11 ar  
    26    10    30 1   
    27    11    12 ar  
    28    11    31 1   
    29    12    13 ar  
    30    12    32 1   
    31    13    14 1   
    32    14    15 1   
    33    14    16 1   
@<TRIPOS>SUBSTRUCTURE
     1 3B4         1 TEMP              0 ****  ****    0 ROOT
