@<TRIPOS>MOLECULE
3B5
   82    85     1     0     0
SMALL
abcg2


@<TRIPOS>ATOM
      1 C10         -1.1270    -6.8990     2.7760 cc         1 3B5      -0.236600
      2 C8          -0.1060    -5.3960     4.1110 cd         1 3B5      -0.026400
      3 C6           1.0360    -3.9550     5.7380 c          1 3B5       0.618700
      4 C3           2.6110    -2.3920     6.8610 ca         1 3B5      -0.019000
      5 C1           2.5390    -0.0580     6.3700 ca         1 3B5       0.353900
      6 C4           1.5750    -2.5750     5.9470 ca         1 3B5      -0.202600
      7 C5           1.0670    -1.4450     5.3030 ca         1 3B5       0.354900
      8 C11         -0.2750    -6.5770     4.8210 cc         1 3B5      -0.163000
      9 N12         -0.8990    -7.4760     4.0060 na         1 3B5       0.069000
     10 C12         -1.2070    -8.8380     4.4220 c3         1 3B5       0.058900
     11 C13         -1.8100    -7.6000     1.6830 c          1 3B5       0.648700
     12 C15         -2.2290    -7.4570    -0.7350 cc         1 3B5      -0.015400
     13 C17         -2.7810    -7.5210    -2.9210 cd         1 3B5      -0.252600
     14 C20         -2.9290    -7.2780    -4.3480 c          1 3B5       0.656700
     15 C25         -2.7190    -5.5630   -10.0280 c3         1 3B5      -0.005400
     16 C27         -2.1590    -6.7700   -10.7960 c3         1 3B5      -0.087600
     17 C28         -0.1690    -4.1250    -8.6750 c          1 3B5       0.539600
     18 C32          2.5600    -0.4400    -8.8380 c3         1 3B5       0.102600
     19 C31          1.4240    -1.3000    -8.3190 c3         1 3B5      -0.136400
     20 C22         -1.9480    -6.0380    -6.2110 cc         1 3B5       0.554300
     21 C23         -1.1740    -4.9950    -8.0050 cd         1 3B5       0.216500
     22 C24         -2.2560    -5.5860    -8.5980 cc         1 3B5      -0.164300
     23 C34          3.5090     1.8280    -9.0560 c3         1 3B5       0.080900
     24 N33          2.2860     1.0360    -8.7160 nx         1 3B5      -0.671000
     25 C35          1.1180     1.4780    -9.5390 c3         1 3B5       0.080900
     26 C30          1.8470    -2.7720    -8.3030 c3         1 3B5       0.120000
     27 N29          0.7850    -3.6460    -7.8510 ns         1 3B5      -0.502900
     28 O28         -0.1980    -3.8690    -9.8830 o          1 3B5      -0.616100
     29 N22         -1.0140    -5.2520    -6.6540 nd         1 3B5      -0.743000
     30 C26         -4.2450    -5.4940   -10.1480 c3         1 3B5      -0.087600
     31 S22         -3.1120    -6.5300    -7.4070 ss         1 3B5       0.093600
     32 O20         -3.8140    -7.7680    -5.0490 o          1 3B5      -0.587100
     33 N19         -3.4670    -8.5180    -2.2600 na         1 3B5       0.074000
     34 C18         -3.1360    -8.4930    -0.9390 cd         1 3B5      -0.155000
     35 C16         -2.0030    -6.8480    -1.9820 cc         1 3B5      -0.166000
     36 N14         -1.6280    -7.0420     0.4540 ns         1 3B5      -0.376100
     37 O13         -2.5020    -8.6060     1.8540 o          1 3B5      -0.607100
     38 C9          -0.6410    -5.5980     2.8230 cd         1 3B5      -0.179000
     39 N7           0.4680    -4.1920     4.5320 ns         1 3B5      -0.373100
     40 O6           1.1220    -4.8130     6.6160 o          1 3B5      -0.591100
     41 N1           1.5310    -0.2110     5.5050 nb         1 3B5      -0.671000
     42 C2           3.1070    -1.1170     7.0710 ca         1 3B5      -0.167000
     43 H3           3.0150    -3.2460     7.3890 ha         1 3B5       0.144000
     44 H1           2.9050     0.9530     6.5110 h4         1 3B5       0.025100
     45 H5           0.2340    -1.5260     4.6130 h4         1 3B5       0.016100
     46 H11          0.0090    -6.8360     5.8230 h4         1 3B5       0.183000
     47 H123        -0.7330    -9.0060     5.3860 h1         1 3B5       0.065033
     48 H121        -2.2820    -8.9800     4.5130 h1         1 3B5       0.065033
     49 H122        -0.8200    -9.5520     3.6980 h1         1 3B5       0.065033
     50 H21         -1.2310    -6.0900    -4.3230 hn         1 3B5       0.342500
     51 H25         -2.2930    -4.6630   -10.4680 hc         1 3B5       0.083700
     52 H273        -1.0690    -6.7900   -10.7470 hc         1 3B5       0.043033
     53 H271        -2.5390    -7.7050   -10.3780 hc         1 3B5       0.043033
     54 H272        -2.4580    -6.7180   -11.8450 hc         1 3B5       0.043033
     55 H322         2.7650    -0.6260    -9.8910 hx         1 3B5       0.096700
     56 H321         3.4710    -0.6220    -8.2680 hx         1 3B5       0.096700
     57 H312         1.1570    -0.9910    -7.3040 hc         1 3B5       0.072700
     58 H311         0.5380    -1.2000    -8.9450 hc         1 3B5       0.072700
     59 H193        -4.6320   -10.2110    -2.0420 h1         1 3B5       0.067367
     60 H192        -5.2800    -9.0280    -3.2010 h1         1 3B5       0.067367
     61 H191        -3.8950   -10.0350    -3.6490 h1         1 3B5       0.067367
     62 H341         4.3160     1.5120    -8.4010 hx         1 3B5       0.100700
     63 H342         3.7600     1.6310   -10.0950 hx         1 3B5       0.100700
     64 H343         3.2890     2.8810    -8.9100 hx         1 3B5       0.100700
     65 H353         0.2220     0.9760    -9.1880 hx         1 3B5       0.100700
     66 H352         1.0110     2.5530    -9.4270 hx         1 3B5       0.100700
     67 H351         1.3210     1.2210   -10.5750 hx         1 3B5       0.100700
     68 H302         2.1460    -3.0810    -9.3060 h1         1 3B5       0.064700
     69 H301         2.7010    -2.9110    -7.6400 h1         1 3B5       0.064700
     70 H29          0.7210    -3.8920    -6.8750 hn         1 3B5       0.352500
     71 H263        -4.6470    -4.6360    -9.6060 hc         1 3B5       0.043033
     72 H261        -4.5290    -5.4010   -11.1970 hc         1 3B5       0.043033
     73 H262        -4.7180    -6.3980    -9.7560 hc         1 3B5       0.043033
     74 H18         -3.5480    -9.2030    -0.2490 h4         1 3B5       0.186000
     75 H16         -1.3670    -5.9950    -2.1580 ha         1 3B5       0.127000
     76 H14         -0.9820    -6.2730     0.3750 hn         1 3B5       0.325500
     77 H9          -0.6900    -4.8620     2.0360 ha         1 3B5       0.126000
     78 H7           0.5080    -3.4650     3.8350 hn         1 3B5       0.320500
     79 H2           3.9170    -0.9380     7.7640 ha         1 3B5       0.133000
     80 H33          2.0630     1.2260    -7.7360 hn         1 3B5       0.499000
     81 C19         -4.3760    -9.5060    -2.8290 c3         1 3B5       0.056900
     82 N21         -1.9910    -6.4320    -4.8940 ns         1 3B5      -0.467400
@<TRIPOS>BOND
     1     1     9 1   
     2     1    11 1   
     3     1    38 2   
     4     2     8 2   
     5     2    38 1   
     6     2    39 1   
     7     3     6 1   
     8     3    39 1   
     9     3    40 2   
    10     4     6 ar  
    11     4    42 ar  
    12     4    43 1   
    13     5    41 ar  
    14     5    42 ar  
    15     5    44 1   
    16     6     7 ar  
    17     7    41 ar  
    18     7    45 1   
    19     8     9 1   
    20     8    46 1   
    21     9    10 1   
    22    10    47 1   
    23    10    48 1   
    24    10    49 1   
    25    11    36 1   
    26    11    37 2   
    27    12    34 2   
    28    12    35 1   
    29    12    36 1   
    30    13    14 1   
    31    13    33 1   
    32    13    35 2   
    33    14    32 2   
    34    14    82 1   
    35    15    16 1   
    36    15    22 1   
    37    15    30 1   
    38    15    51 1   
    39    16    52 1   
    40    16    53 1   
    41    16    54 1   
    42    17    21 1   
    43    17    27 1   
    44    17    28 2   
    45    18    19 1   
    46    18    24 1   
    47    18    55 1   
    48    18    56 1   
    49    19    26 1   
    50    19    57 1   
    51    19    58 1   
    52    20    29 2   
    53    20    31 1   
    54    20    82 1   
    55    21    22 2   
    56    21    29 1   
    57    22    31 1   
    58    23    24 1   
    59    23    62 1   
    60    23    63 1   
    61    23    64 1   
    62    24    25 1   
    63    24    80 1   
    64    25    65 1   
    65    25    66 1   
    66    25    67 1   
    67    26    27 1   
    68    26    68 1   
    69    26    69 1   
    70    27    70 1   
    71    30    71 1   
    72    30    72 1   
    73    30    73 1   
    74    33    34 1   
    75    33    81 1   
    76    34    74 1   
    77    35    75 1   
    78    36    76 1   
    79    38    77 1   
    80    39    78 1   
    81    42    79 1   
    82    50    82 1   
    83    59    81 1   
    84    60    81 1   
    85    61    81 1   
@<TRIPOS>SUBSTRUCTURE
     1 3B5         1 TEMP              0 ****  ****    0 ROOT
