@<TRIPOS>MOLECULE
3B5
   82    85     1     0     0
SMALL
No Charge or Current Charge


@<TRIPOS>ATOM
      1 C10         -1.5160    -6.8760     2.6870 cc         1 3B5      -0.236600
      2 C8          -0.0140    -5.4200     3.5440 cd         1 3B5      -0.026400
      3 C6           1.6150    -3.8590     4.6280 c          1 3B5       0.618700
      4 C3           3.3400    -2.1540     5.3550 ca         1 3B5      -0.019000
      5 C1           4.4440    -0.8010     3.6800 ca         1 3B5       0.353900
      6 C4           2.6170    -2.7780     4.3150 ca         1 3B5      -0.202600
      7 C5           2.8670    -2.3560     2.9930 ca         1 3B5       0.354900
      8 C11         -0.5320    -6.0900     4.6150 cc         1 3B5      -0.163000
      9 N12         -1.4610    -6.9910     4.0870 na         1 3B5       0.069000
     10 C12         -2.2590    -7.9200     4.9010 c3         1 3B5       0.058900
     11 C13         -2.3580    -7.6330     1.7180 c          1 3B5       0.648700
     12 C15         -2.7590    -7.7460    -0.7530 cc         1 3B5      -0.015400
     13 C17         -3.2370    -7.9730    -2.9590 cd         1 3B5      -0.252600
     14 C20         -3.2340    -7.7880    -4.4390 c          1 3B5       0.656700
     15 C25         -2.0010    -5.7330    -9.9970 c3         1 3B5      -0.005400
     16 C27         -1.0270    -6.7030   -10.6980 c3         1 3B5      -0.087600
     17 C28         -0.0350    -4.0590    -8.0900 c          1 3B5       0.539600
     18 C32          2.0650     0.0670    -7.4410 c3         1 3B5       0.102600
     19 C31          1.0130    -1.0520    -7.3480 c3         1 3B5      -0.136400
     20 C22         -2.1000    -6.4010    -6.1310 cc         1 3B5       0.554300
     21 C23         -1.0320    -5.1060    -7.6190 cd         1 3B5       0.216500
     22 C24         -1.8610    -5.8220    -8.4850 cc         1 3B5      -0.164300
     23 C34          2.5110     2.5580    -7.3940 c3         1 3B5       0.080900
     24 N33          1.4550     1.4610    -7.5860 nx         1 3B5      -0.671000
     25 C35          0.6890     1.6460    -8.9050 c3         1 3B5       0.080900
     26 C30          1.6510    -2.4370    -7.1290 c3         1 3B5       0.120000
     27 N29          0.6420    -3.4930    -7.0300 ns         1 3B5      -0.502900
     28 O28          0.1940    -3.7220    -9.2460 o          1 3B5      -0.616100
     29 N22         -1.1990    -5.4500    -6.2650 nd         1 3B5      -0.743000
     30 C26         -3.4530    -5.9450   -10.4860 c3         1 3B5      -0.087600
     31 S22         -2.8220    -6.9880    -7.6040 ss         1 3B5       0.093600
     32 O20         -3.9400    -8.4300    -5.1990 o          1 3B5      -0.587100
     33 N19         -4.0100    -8.8710    -2.2010 na         1 3B5       0.074000
     34 C18         -3.7100    -8.7250    -0.8410 cd         1 3B5      -0.155000
     35 C16         -2.4680    -7.2850    -2.0460 cc         1 3B5      -0.166000
     36 N14         -2.1570    -7.2620     0.4020 ns         1 3B5      -0.376100
     37 O13         -3.1520    -8.5000     2.0570 o          1 3B5      -0.607100
     38 C9          -0.6070    -5.8910     2.3640 cd         1 3B5      -0.179000
     39 N7           0.9460    -4.4220     3.5500 ns         1 3B5      -0.373100
     40 O6           1.4130    -4.2100     5.7830 o          1 3B5      -0.591100
     41 N1           3.7590    -1.3900     2.6740 nb         1 3B5      -0.671000
     42 C2           4.2650    -1.1520     5.0250 ca         1 3B5      -0.167000
     43 H3           3.1910    -2.4370     6.3960 ha         1 3B5       0.144000
     44 H1           5.1560    -0.0260     3.3970 h4         1 3B5       0.025100
     45 H5           2.3440    -2.7960     2.1450 h4         1 3B5       0.016100
     46 H11         -0.3340    -6.0130     5.6760 h4         1 3B5       0.183000
     47 H123        -2.0130    -7.7950     5.9620 h1         1 3B5       0.065033
     48 H121        -3.3260    -7.7140     4.7520 h1         1 3B5       0.065033
     49 H122        -2.0400    -8.9510     4.6000 h1         1 3B5       0.065033
     50 H21         -1.8390    -6.3730    -4.1290 hn         1 3B5       0.342500
     51 H25         -1.7450    -4.7200   -10.3230 hc         1 3B5       0.083700
     52 H273         0.0070    -6.4960   -10.3970 hc         1 3B5       0.043033
     53 H271        -1.2580    -7.7430   -10.4390 hc         1 3B5       0.043033
     54 H272        -1.0900    -6.5970   -11.7880 hc         1 3B5       0.043033
     55 H322         2.7230    -0.1180    -8.2940 hx         1 3B5       0.096700
     56 H321         2.6760     0.0510    -6.5330 hx         1 3B5       0.096700
     57 H312         0.3270    -0.8370    -6.5190 hc         1 3B5       0.072700
     58 H311         0.4180    -1.0730    -8.2670 hc         1 3B5       0.072700
     59 H193        -5.4430   -10.3970    -1.9120 h1         1 3B5       0.067367
     60 H192        -5.7790    -9.2840    -3.2690 h1         1 3B5       0.067367
     61 H191        -4.4930   -10.5200    -3.4210 h1         1 3B5       0.067367
     62 H341         2.9970     2.4400    -6.4220 hx         1 3B5       0.100700
     63 H342         3.2630     2.4820    -8.1830 hx         1 3B5       0.100700
     64 H343         2.0370     3.5410    -7.4430 hx         1 3B5       0.100700
     65 H353        -0.1140     0.9090    -8.9780 hx         1 3B5       0.100700
     66 H352         0.2580     2.6500    -8.9450 hx         1 3B5       0.100700
     67 H351         1.3740     1.5160    -9.7460 hx         1 3B5       0.100700
     68 H302         2.3310    -2.6680    -7.9610 h1         1 3B5       0.064700
     69 H301         2.2410    -2.4280    -6.2030 h1         1 3B5       0.064700
     70 H29          0.3820    -3.8520    -6.1150 hn         1 3B5       0.352500
     71 H263        -4.1400    -5.2680    -9.9640 hc         1 3B5       0.043033
     72 H261        -3.5300    -5.7390   -11.5610 hc         1 3B5       0.043033
     73 H262        -3.7880    -6.9760   -10.3200 hc         1 3B5       0.043033
     74 H18         -4.1900    -9.3190    -0.0730 h4         1 3B5       0.186000
     75 H16         -1.7420    -6.5050    -2.2530 ha         1 3B5       0.127000
     76 H14         -1.4670    -6.5320     0.2960 hn         1 3B5       0.325500
     77 H9          -0.3720    -5.5250     1.3690 ha         1 3B5       0.126000
     78 H7           1.2150    -4.0330     2.6570 hn         1 3B5       0.320500
     79 H2           4.8400    -0.6500     5.7990 ha         1 3B5       0.133000
     80 H33          0.7610     1.5730    -6.8080 hn         1 3B5       0.499000
     81 C19         -4.9920    -9.8270    -2.7340 c3         1 3B5       0.056900
     82 N21         -2.3590    -6.8260    -4.8590 ns         1 3B5      -0.467400
@<TRIPOS>BOND
     1     1     9 1   
     2     1    11 1   
     3     1    38 2   
     4     2     8 2   
     5     2    38 1   
     6     2    39 1   
     7     3     6 1   
     8     3    39 1   
     9     3    40 2   
    10     4     6 ar  
    11     4    42 ar  
    12     4    43 1   
    13     5    41 ar  
    14     5    42 ar  
    15     5    44 1   
    16     6     7 ar  
    17     7    41 ar  
    18     7    45 1   
    19     8     9 1   
    20     8    46 1   
    21     9    10 1   
    22    10    47 1   
    23    10    48 1   
    24    10    49 1   
    25    11    36 1   
    26    11    37 2   
    27    12    34 2   
    28    12    35 1   
    29    12    36 1   
    30    13    14 1   
    31    13    33 1   
    32    13    35 2   
    33    14    32 2   
    34    14    82 1   
    35    15    16 1   
    36    15    22 1   
    37    15    30 1   
    38    15    51 1   
    39    16    52 1   
    40    16    53 1   
    41    16    54 1   
    42    17    21 1   
    43    17    27 1   
    44    17    28 2   
    45    18    19 1   
    46    18    24 1   
    47    18    55 1   
    48    18    56 1   
    49    19    26 1   
    50    19    57 1   
    51    19    58 1   
    52    20    29 2   
    53    20    31 1   
    54    20    82 1   
    55    21    22 2   
    56    21    29 1   
    57    22    31 1   
    58    23    24 1   
    59    23    62 1   
    60    23    63 1   
    61    23    64 1   
    62    24    25 1   
    63    24    80 1   
    64    25    65 1   
    65    25    66 1   
    66    25    67 1   
    67    26    27 1   
    68    26    68 1   
    69    26    69 1   
    70    27    70 1   
    71    30    71 1   
    72    30    72 1   
    73    30    73 1   
    74    33    34 1   
    75    33    81 1   
    76    34    74 1   
    77    35    75 1   
    78    36    76 1   
    79    38    77 1   
    80    39    78 1   
    81    42    79 1   
    82    50    82 1   
    83    59    81 1   
    84    60    81 1   
    85    61    81 1   
@<TRIPOS>SUBSTRUCTURE
     1 3B5         1 TEMP              0 ****  ****    0 ROOT
