@<TRIPOS>MOLECULE
3B6
   39    40     1     0     0
SMALL
No Charge or Current Charge


@<TRIPOS>ATOM
      1 C5          -2.1670    -0.1440    -1.2280 ca         1 3B6      -0.147000
      2 C4          -3.4330     0.4130    -1.4750 ca         1 3B6       0.252000
      3 I7          -4.5830    -0.3540    -3.1600 i          1 3B6      -0.273000
      4 C3          -3.9270     1.4370    -0.6460 ca         1 3B6      -0.018000
      5 C8          -5.2170     2.0170    -0.8820 cg         1 3B6       0.320000
      6 N8          -6.2660     2.4990    -1.0640 n1         1 3B6      -0.431000
      7 C2          -3.1420     1.8940     0.4300 ca         1 3B6      -0.046000
      8 C1          -1.8750     1.3340     0.6740 ca         1 3B6      -0.131000
      9 C6          -1.3740     0.3080    -0.1570 ca         1 3B6       0.002000
     10 N9          -0.1050    -0.3080     0.0270 ns         1 3B6      -0.140000
     11 C10          0.9280    -0.0880     0.9300 c          1 3B6       0.573100
     12 O10          0.9010     0.7830     1.7950 o          1 3B6      -0.568100
     13 C11          2.1650    -1.0350     0.7480 c3         1 3B6       0.111000
     14 O11          2.0100    -1.9300    -0.3840 oh         1 3B6      -0.647000
     15 C12          2.3280    -1.9240     2.0080 c3         1 3B6      -0.082100
     16 C13          3.4270    -0.1610     0.5050 c3         1 3B6       0.136600
     17 O14          4.5280    -1.0280     0.1570 os         1 3B6      -0.336100
     18 C16          5.7910    -0.5430    -0.1080 ca         1 3B6       0.165100
     19 C17          6.7940    -1.4720    -0.4260 ca         1 3B6      -0.180000
     20 C18          8.1030    -1.0410    -0.7080 ca         1 3B6      -0.031500
     21 C19          8.4150     0.3310    -0.6710 ca         1 3B6      -0.059000
     22 C22          9.7510     0.7750    -0.9580 cg         1 3B6       0.328000
     23 N22         10.8390     1.1270    -1.1950 n1         1 3B6      -0.454000
     24 C20          7.4120     1.2660    -0.3530 ca         1 3B6      -0.031500
     25 C21          6.1030     0.8330    -0.0720 ca         1 3B6      -0.180000
     26 H5          -1.8030    -0.9340    -1.8800 ha         1 3B6       0.130000
     27 H2          -3.5130     2.6840     1.0800 ha         1 3B6       0.132000
     28 H1          -1.3030     1.7130     1.5160 ha         1 3B6       0.156000
     29 HN9          0.0910    -1.0580    -0.6250 hn         1 3B6       0.175000
     30 HO11         2.9170    -2.2320    -0.6200 ho         1 3B6       0.455000
     31 H12          1.4260    -2.5260     2.1750 hc         1 3B6       0.061700
     32 H12A         3.1780    -2.6100     1.9040 hc         1 3B6       0.061700
     33 H12B         2.4960    -1.3100     2.9010 hc         1 3B6       0.061700
     34 H13          3.2270     0.5490    -0.3090 h1         1 3B6       0.058700
     35 H13A         3.6570     0.4140     1.4130 h1         1 3B6       0.058700
     36 H17          6.5560    -2.5320    -0.4550 ha         1 3B6       0.130500
     37 H18          8.8710    -1.7740    -0.9530 ha         1 3B6       0.127500
     38 H20          7.6440     2.3300    -0.3220 ha         1 3B6       0.127500
     39 H21          5.3500     1.5770     0.1710 ha         1 3B6       0.130500
@<TRIPOS>BOND
     1     1     2 ar  
     2     1     9 ar  
     3     1    26 1   
     4     2     3 1   
     5     2     4 ar  
     6     4     5 1   
     7     4     7 ar  
     8     5     6 3   
     9     7     8 ar  
    10     7    27 1   
    11     8     9 ar  
    12     8    28 1   
    13     9    10 1   
    14    10    11 1   
    15    10    29 1   
    16    11    12 2   
    17    11    13 1   
    18    13    14 1   
    19    13    15 1   
    20    13    16 1   
    21    14    30 1   
    22    15    31 1   
    23    15    32 1   
    24    15    33 1   
    25    16    17 1   
    26    16    34 1   
    27    16    35 1   
    28    17    18 1   
    29    18    19 ar  
    30    18    25 ar  
    31    19    20 ar  
    32    19    36 1   
    33    20    21 ar  
    34    20    37 1   
    35    21    22 1   
    36    21    24 ar  
    37    22    23 3   
    38    24    25 ar  
    39    24    38 1   
    40    25    39 1   
@<TRIPOS>SUBSTRUCTURE
     1 3B6         1 TEMP              0 ****  ****    0 ROOT
