@<TRIPOS>MOLECULE
3B6
   39    40     1     0     0
SMALL
abcg2


@<TRIPOS>ATOM
      1 C5          -2.3040    -0.3790    -0.9630 ca         1 3B6      -0.147000
      2 C4          -3.5700     0.1520    -1.0710 ca         1 3B6       0.252000
      3 I7          -4.9910    -0.8380    -2.2470 i          1 3B6      -0.273000
      4 C3          -3.8990     1.3360    -0.4030 ca         1 3B6      -0.018000
      5 C8          -5.1930     1.9200    -0.4920 cg         1 3B6       0.320000
      6 N8          -6.2320     2.4180    -0.5460 n1         1 3B6      -0.431000
      7 C2          -2.9230     1.9600     0.3730 ca         1 3B6      -0.046000
      8 C1          -1.6510     1.4370     0.4920 ca         1 3B6      -0.131000
      9 C6          -1.3280     0.2570    -0.1830 ca         1 3B6       0.002000
     10 N9          -0.0850    -0.3530    -0.1430 ns         1 3B6      -0.140000
     11 C10          1.0260     0.0110     0.5450 c          1 3B6       0.573100
     12 O10          1.1090     0.9820     1.2690 o          1 3B6      -0.568100
     13 C11          2.2060    -0.9650     0.3740 c3         1 3B6       0.111000
     14 O11          2.0330    -1.8050    -0.7410 oh         1 3B6      -0.647000
     15 C12          2.2340    -1.8620     1.6110 c3         1 3B6      -0.082100
     16 C13          3.4780    -0.1250     0.2430 c3         1 3B6       0.136600
     17 O14          4.5650    -1.0220     0.1360 os         1 3B6      -0.336100
     18 C16          5.8020    -0.5390    -0.0160 ca         1 3B6       0.165100
     19 C17          6.8220    -1.4910    -0.1180 ca         1 3B6      -0.180000
     20 C18          8.1300    -1.0920    -0.2790 ca         1 3B6      -0.031500
     21 C19          8.4440     0.2690    -0.3420 ca         1 3B6      -0.059000
     22 C22          9.7950     0.6850    -0.5130 cg         1 3B6       0.328000
     23 N22         10.8890     1.0190    -0.6580 n1         1 3B6      -0.454000
     24 C20          7.4280     1.2170    -0.2390 ca         1 3B6      -0.031500
     25 C21          6.1120     0.8210    -0.0770 ca         1 3B6      -0.180000
     26 H5          -2.0500    -1.2970    -1.4770 ha         1 3B6       0.130000
     27 H2          -3.1680     2.8760     0.8930 ha         1 3B6       0.132000
     28 H1          -0.9290     1.9490     1.1040 ha         1 3B6       0.156000
     29 HN9          0.0150    -1.1910    -0.7020 hn         1 3B6       0.175000
     30 HO11         2.2080    -1.3150    -1.5530 ho         1 3B6       0.455000
     31 H12          1.3100    -2.4370     1.6860 hc         1 3B6       0.061700
     32 H12A         3.0660    -2.5610     1.5560 hc         1 3B6       0.061700
     33 H12B         2.3390    -1.2690     2.5180 hc         1 3B6       0.061700
     34 H13          3.4160     0.5100    -0.6490 h1         1 3B6       0.058700
     35 H13A         3.5950     0.5270     1.1120 h1         1 3B6       0.058700
     36 H17          6.5770    -2.5440    -0.0690 ha         1 3B6       0.130500
     37 H18          8.9120    -1.8350    -0.3560 ha         1 3B6       0.127500
     38 H20          7.6620     2.2720    -0.2870 ha         1 3B6       0.127500
     39 H21          5.3500     1.5830    -0.0030 ha         1 3B6       0.130500
@<TRIPOS>BOND
     1     1     2 ar  
     2     1     9 ar  
     3     1    26 1   
     4     2     3 1   
     5     2     4 ar  
     6     4     5 1   
     7     4     7 ar  
     8     5     6 3   
     9     7     8 ar  
    10     7    27 1   
    11     8     9 ar  
    12     8    28 1   
    13     9    10 1   
    14    10    11 1   
    15    10    29 1   
    16    11    12 2   
    17    11    13 1   
    18    13    14 1   
    19    13    15 1   
    20    13    16 1   
    21    14    30 1   
    22    15    31 1   
    23    15    32 1   
    24    15    33 1   
    25    16    17 1   
    26    16    34 1   
    27    16    35 1   
    28    17    18 1   
    29    18    19 ar  
    30    18    25 ar  
    31    19    20 ar  
    32    19    36 1   
    33    20    21 ar  
    34    20    37 1   
    35    21    22 1   
    36    21    24 ar  
    37    22    23 3   
    38    24    25 ar  
    39    24    38 1   
    40    25    39 1   
@<TRIPOS>SUBSTRUCTURE
     1 3B6         1 TEMP              0 ****  ****    0 ROOT
