@<TRIPOS>MOLECULE
3B8
   28    30     1     0     0
SMALL
No Charge or Current Charge


@<TRIPOS>ATOM
      1 C5           4.4120    -1.1120     0.0050 ca         1 3B8      -0.099000
      2 C6           3.1580    -1.7510    -0.0070 ca         1 3B8      -0.110000
      3 C3           3.2990     1.0560     0.0380 ca         1 3B8      -0.070000
      4 C2           2.0390     0.4130     0.0260 ca         1 3B8      -0.202600
      5 C1           1.9780    -0.9880     0.0040 ca         1 3B8       0.147100
      6 O11         -5.2760     0.1540     0.2900 o          1 3B8      -0.643100
      7 C4           4.4770     0.2900     0.0270 ca         1 3B8       0.138000
      8 O7           0.7710    -1.6360    -0.0080 os         1 3B8      -0.323400
      9 C8           0.7650     1.1900     0.0370 c          1 3B8       0.624300
     10 F9           5.6790     0.9060     0.0390 f          1 3B8      -0.171000
     11 O10          0.7580     2.4140     0.0580 o          1 3B8      -0.542100
     12 N12         -4.4150     2.1480    -0.1060 nt         1 3B8      -0.593000
     13 C13         -2.6960    -1.1370    -0.0090 ca         1 3B8       0.731900
     14 C14         -2.9000     0.2400     0.0260 ca         1 3B8      -0.331600
     15 C15         -1.7490     1.0490     0.0370 ca         1 3B8       0.080000
     16 C16         -0.4970     0.4140     0.0220 ca         1 3B8      -0.374600
     17 C17         -0.4340    -0.9810     0.0000 ca         1 3B8       0.697300
     18 N18         -1.5320    -1.7490    -0.0130 nb         1 3B8      -0.811000
     19 N19         -3.6480    -2.0540    -0.0470 nv         1 3B8      -1.048900
     20 C20         -4.2780     0.8200     0.0700 c          1 3B8       0.643700
     21 H5           5.3270    -1.6980    -0.0040 ha         1 3B8       0.140000
     22 H6           3.1000    -2.8370    -0.0250 ha         1 3B8       0.143000
     23 H3           3.3710     2.1410     0.0560 ha         1 3B8       0.156000
     24 HN12        -5.3380     2.5510    -0.0690 hn         1 3B8       0.319000
     25 HN1A        -3.6130     2.7250    -0.3040 hn         1 3B8       0.319000
     26 H15         -1.8120     2.1350     0.0730 ha         1 3B8       0.135000
     27 HN19        -4.5630    -1.7120     0.2380 hn         1 3B8       0.524000
     28 HN1B        -3.3660    -2.9590     0.3000 hn         1 3B8       0.524000
@<TRIPOS>BOND
     1     1     2 ar  
     2     1     7 ar  
     3     1    21 1   
     4     2     5 ar  
     5     2    22 1   
     6     3     4 ar  
     7     3     7 ar  
     8     3    23 1   
     9     4     5 ar  
    10     4     9 1   
    11     5     8 1   
    12     6    20 2   
    13     7    10 1   
    14     8    17 1   
    15     9    11 2   
    16     9    16 1   
    17    12    20 1   
    18    12    24 1   
    19    12    25 1   
    20    13    14 ar  
    21    13    18 ar  
    22    13    19 1   
    23    14    15 ar  
    24    14    20 1   
    25    15    16 ar  
    26    15    26 1   
    27    16    17 ar  
    28    17    18 ar  
    29    19    27 1   
    30    19    28 1   
@<TRIPOS>SUBSTRUCTURE
     1 3B8         1 TEMP              0 ****  ****    0 ROOT
