@<TRIPOS>MOLECULE
3B8
   28    30     1     0     0
SMALL
abcg2


@<TRIPOS>ATOM
      1 C5           4.3320    -1.0920    -0.0750 ca         1 3B8      -0.099000
      2 C6           3.1020    -1.7150    -0.0800 ca         1 3B8      -0.110000
      3 C3           3.2620     1.0680     0.0790 ca         1 3B8      -0.070000
      4 C2           2.0120     0.4430     0.0730 ca         1 3B8      -0.202600
      5 C1           1.9460    -0.9450    -0.0060 ca         1 3B8       0.147100
      6 O11         -5.1970     0.1800     0.4600 o          1 3B8      -0.643100
      7 C4           4.3920     0.2940     0.0060 ca         1 3B8       0.138000
      8 O7           0.7700    -1.6180    -0.0150 os         1 3B8      -0.323400
      9 C8           0.7740     1.2360     0.1470 c          1 3B8       0.624300
     10 F9           5.5950     0.8840     0.0110 f          1 3B8      -0.171000
     11 O10          0.7790     2.4540     0.2200 o          1 3B8      -0.542100
     12 N12         -4.3050     2.1100    -0.2640 nt         1 3B8      -0.593000
     13 C13         -2.6600    -1.1950     0.0940 ca         1 3B8       0.731900
     14 C14         -2.8480     0.2300     0.1100 ca         1 3B8      -0.331600
     15 C15         -1.7140     1.0040     0.1450 ca         1 3B8       0.080000
     16 C16         -0.4360     0.4380     0.1180 ca         1 3B8      -0.374600
     17 C17         -0.3930    -0.9570     0.0470 ca         1 3B8       0.697300
     18 N18         -1.4400    -1.7380     0.0410 nb         1 3B8      -0.811000
     19 N19         -3.6800    -2.0460     0.1090 nv         1 3B8      -1.048900
     20 C20         -4.2110     0.8280     0.1170 c          1 3B8       0.643700
     21 H5           5.2410    -1.6760    -0.1330 ha         1 3B8       0.140000
     22 H6           3.0330    -2.7930    -0.1410 ha         1 3B8       0.143000
     23 H3           3.3290     2.1460     0.1390 ha         1 3B8       0.156000
     24 HN12        -5.2140     2.5430    -0.2970 hn         1 3B8       0.319000
     25 HN1A        -3.5540     2.6070    -0.7080 hn         1 3B8       0.319000
     26 H15         -1.7810     2.0830     0.2060 ha         1 3B8       0.135000
     27 HN19        -4.6200    -1.7070     0.2370 hn         1 3B8       0.524000
     28 HN1B        -3.4960    -3.0350     0.1140 hn         1 3B8       0.524000
@<TRIPOS>BOND
     1     1     2 ar  
     2     1     7 ar  
     3     1    21 1   
     4     2     5 ar  
     5     2    22 1   
     6     3     4 ar  
     7     3     7 ar  
     8     3    23 1   
     9     4     5 ar  
    10     4     9 1   
    11     5     8 1   
    12     6    20 2   
    13     7    10 1   
    14     8    17 1   
    15     9    11 2   
    16     9    16 1   
    17    12    20 1   
    18    12    24 1   
    19    12    25 1   
    20    13    14 ar  
    21    13    18 ar  
    22    13    19 1   
    23    14    15 ar  
    24    14    20 1   
    25    15    16 ar  
    26    15    26 1   
    27    16    17 ar  
    28    17    18 ar  
    29    19    27 1   
    30    19    28 1   
@<TRIPOS>SUBSTRUCTURE
     1 3B8         1 TEMP              0 ****  ****    0 ROOT
