@<TRIPOS>MOLECULE
3B9
   56    59     1     0     0
SMALL
abcg2


@<TRIPOS>ATOM
      1 C15          4.7740    -0.3300     0.5430 ca         1 3B9      -0.166000
      2 C1          -6.8020    -2.1210    -0.1280 ca         1 3B9       0.437900
      3 C2          -7.5690     0.0130     0.1110 ca         1 3B9       0.455900
      4 C3          -5.2210    -0.5030    -0.1140 ca         1 3B9       0.162000
      5 C8          -2.0580     1.3940    -0.1680 c3         1 3B9      -0.117300
      6 C4          -6.2120     0.4870     0.0500 ca         1 3B9      -0.286000
      7 C5          -5.8060     1.8220     0.1440 ca         1 3B9      -0.013000
      8 C6          -4.4720     2.1270     0.0740 ca         1 3B9      -0.210000
      9 C7          -3.5440     1.0780    -0.0960 ca         1 3B9       0.161300
     10 C9          -1.2700     0.1010    -0.4490 c3         1 3B9       0.113000
     11 N1          -7.8380    -1.2720     0.0230 nb         1 3B9      -0.350000
     12 N2          -5.5200    -1.8100    -0.2020 nb         1 3B9      -0.276000
     13 N3          -3.9150    -0.1780    -0.1850 nb         1 3B9      -0.162000
     14 N5          -8.5900     0.8570     0.2660 nv         1 3B9      -1.078900
     15 C10         -1.8100     2.4040    -1.2950 c3         1 3B9      -0.083600
     16 C11         -1.6200     1.9950     1.1740 c3         1 3B9      -0.083600
     17 N6           0.1580     0.3110    -0.5270 ns         1 3B9      -0.505900
     18 C12          1.0200    -0.0380     0.4460 c          1 3B9       0.615700
     19 O1           0.6770    -0.5740     1.4910 o          1 3B9      -0.599100
     20 C13          2.4570     0.2580     0.1720 ca         1 3B9      -0.181600
     21 C14          3.4250    -0.5560     0.7540 ca         1 3B9      -0.044500
     22 C16          5.1720     0.7440    -0.2480 ca         1 3B9       0.150100
     23 C17          4.2200     1.5840    -0.8140 ca         1 3B9      -0.166000
     24 C18          2.8740     1.3380    -0.6030 ca         1 3B9      -0.044500
     25 O2           6.4740     1.0580    -0.4710 os         1 3B9      -0.254200
     26 C19          7.4310     0.0750    -0.4050 ca         1 3B9       0.103100
     27 C20          8.4850     0.2460     0.4790 ca         1 3B9      -0.126000
     28 C21          9.4980    -0.7040     0.5180 ca         1 3B9      -0.095500
     29 C22          9.4490    -1.8180    -0.3080 ca         1 3B9      -0.117000
     30 C23          8.3840    -1.9770    -1.1870 ca         1 3B9      -0.095500
     31 C24          7.3710    -1.0310    -1.2430 ca         1 3B9      -0.126000
     32 H15          5.5020    -0.9850     1.0040 ha         1 3B9       0.130500
     33 H5          -6.5240     2.6230     0.2720 ha         1 3B9       0.104000
     34 H6          -4.1430     3.1540     0.1490 ha         1 3B9       0.125000
     35 H9          -1.4670    -0.6360     0.3270 h1         1 3B9       0.076200
     36 H9A         -1.6010    -0.3350    -1.3930 h1         1 3B9       0.076200
     37 HN4         -8.0700    -3.7080    -0.0070 hn         1 3B9       0.497500
     38 HN4A        -6.4110    -4.1140    -0.1900 hn         1 3B9       0.497500
     39 HN5         -8.4760     1.8540     0.2880 hn         1 3B9       0.500000
     40 HN5A        -9.5300     0.5010     0.2730 hn         1 3B9       0.500000
     41 H10         -2.3260     3.3480    -1.1140 hc         1 3B9       0.039533
     42 H10A        -0.7470     2.6370    -1.3760 hc         1 3B9       0.039533
     43 H10B        -2.1460     2.0180    -2.2590 hc         1 3B9       0.039533
     44 H11         -1.7390     1.2790     1.9880 hc         1 3B9       0.039533
     45 H11A        -0.5720     2.2950     1.1370 hc         1 3B9       0.039533
     46 H11B        -2.1980     2.8860     1.4210 hc         1 3B9       0.039533
     47 HN6          0.5320     0.6000    -1.4150 hn         1 3B9       0.309500
     48 H14          3.1260    -1.3880     1.3780 ha         1 3B9       0.125000
     49 H17          4.5330     2.4320    -1.4090 ha         1 3B9       0.130500
     50 H18          2.1550     2.0200    -1.0400 ha         1 3B9       0.125000
     51 H20          8.5150     1.1150     1.1240 ha         1 3B9       0.128500
     52 H21         10.3250    -0.5720     1.2040 ha         1 3B9       0.117000
     53 H22         10.2380    -2.5580    -0.2720 ha         1 3B9       0.117000
     54 H23          8.3410    -2.8400    -1.8380 ha         1 3B9       0.117000
     55 H24          6.5480    -1.1520    -1.9370 ha         1 3B9       0.128500
     56 N4          -7.1360    -3.4200    -0.2410 nv         1 3B9      -1.059900
@<TRIPOS>BOND
     1     1    21 ar  
     2     1    22 ar  
     3     1    32 1   
     4     2    11 ar  
     5     2    12 ar  
     6     2    56 1   
     7     3     6 ar  
     8     3    11 ar  
     9     3    14 1   
    10     4     6 ar  
    11     4    12 ar  
    12     4    13 ar  
    13     5     9 1   
    14     5    10 1   
    15     5    15 1   
    16     5    16 1   
    17     6     7 ar  
    18     7     8 ar  
    19     7    33 1   
    20     8     9 ar  
    21     8    34 1   
    22     9    13 ar  
    23    10    17 1   
    24    10    35 1   
    25    10    36 1   
    26    14    39 1   
    27    14    40 1   
    28    15    41 1   
    29    15    42 1   
    30    15    43 1   
    31    16    44 1   
    32    16    45 1   
    33    16    46 1   
    34    17    18 1   
    35    17    47 1   
    36    18    19 2   
    37    18    20 1   
    38    20    21 ar  
    39    20    24 ar  
    40    21    48 1   
    41    22    23 ar  
    42    22    25 1   
    43    23    24 ar  
    44    23    49 1   
    45    24    50 1   
    46    25    26 1   
    47    26    27 ar  
    48    26    31 ar  
    49    27    28 ar  
    50    27    51 1   
    51    28    29 ar  
    52    28    52 1   
    53    29    30 ar  
    54    29    53 1   
    55    30    31 ar  
    56    30    54 1   
    57    31    55 1   
    58    37    56 1   
    59    38    56 1   
@<TRIPOS>SUBSTRUCTURE
     1 3B9         1 TEMP              0 ****  ****    0 ROOT
