@<TRIPOS>MOLECULE
3B9
   56    59     1     0     0
SMALL
No Charge or Current Charge


@<TRIPOS>ATOM
      1 C15          4.8660    -0.0650     0.6490 ca         1 3B9      -0.166000
      2 C1          -7.1720    -1.9250    -0.4890 ca         1 3B9       0.437900
      3 C2          -7.6970     0.1540     0.1820 ca         1 3B9       0.455900
      4 C3          -5.3980    -0.4810    -0.2360 ca         1 3B9       0.162000
      5 C8          -2.0890     1.2820    -0.0380 c3         1 3B9      -0.117300
      6 C4          -6.3350     0.5130     0.1540 ca         1 3B9      -0.286000
      7 C5          -5.8760     1.8000     0.4980 ca         1 3B9      -0.013000
      8 C6          -4.5020     2.0570     0.4380 ca         1 3B9      -0.210000
      9 C7          -3.6200     1.0330     0.0400 ca         1 3B9       0.161300
     10 C9          -1.3250     0.0010    -0.5190 c3         1 3B9       0.113000
     11 N1          -8.1250    -1.0650    -0.1370 nb         1 3B9      -0.350000
     12 N2          -5.8530    -1.7110    -0.5570 nb         1 3B9      -0.276000
     13 N3          -4.0780    -0.1980    -0.2830 nb         1 3B9      -0.162000
     14 N5          -8.6890     1.0120     0.5260 nv         1 3B9      -1.078900
     15 C10         -1.8190     2.4420    -1.0400 c3         1 3B9      -0.083600
     16 C11         -1.5770     1.6930     1.3730 c3         1 3B9      -0.083600
     17 N6           0.1300     0.1790    -0.6370 ns         1 3B9      -0.505900
     18 C12          1.0620    -0.2670     0.2770 c          1 3B9       0.615700
     19 O1           0.7300    -0.9090     1.2640 o          1 3B9      -0.599100
     20 C13          2.5090     0.0800    -0.0070 ca         1 3B9      -0.181600
     21 C14          3.5140    -0.3690     0.8810 ca         1 3B9      -0.044500
     22 C16          5.2370     0.6860    -0.4800 ca         1 3B9       0.150100
     23 C17          4.2500     1.1490    -1.3600 ca         1 3B9      -0.166000
     24 C18          2.8950     0.8490    -1.1340 ca         1 3B9      -0.044500
     25 O2           6.5530     1.0090    -0.7220 os         1 3B9      -0.254200
     26 C19          7.5930     0.1380    -0.4860 ca         1 3B9       0.103100
     27 C20          8.8080     0.6470     0.0030 ca         1 3B9      -0.126000
     28 C21          9.8910    -0.2190     0.2390 ca         1 3B9      -0.095500
     29 C22          9.7610    -1.5940    -0.0230 ca         1 3B9      -0.117000
     30 C23          8.5500    -2.1040    -0.5250 ca         1 3B9      -0.095500
     31 C24          7.4670    -1.2390    -0.7610 ca         1 3B9      -0.126000
     32 H15          5.6220    -0.4100     1.3500 ha         1 3B9       0.130500
     33 H5          -6.5550     2.5890     0.8110 ha         1 3B9       0.104000
     34 H6          -4.1320     3.0440     0.7010 ha         1 3B9       0.125000
     35 H9          -1.5300    -0.8310     0.1690 h1         1 3B9       0.076200
     36 H9A         -1.7030    -0.2980    -1.5070 h1         1 3B9       0.076200
     37 HN4         -8.5390    -3.4310    -0.5450 hn         1 3B9       0.497500
     38 HN4A        -6.9070    -3.9150    -0.8500 hn         1 3B9       0.497500
     39 HN5         -8.4970     2.0080     0.4870 hn         1 3B9       0.500000
     40 HN5A        -9.6440     0.7320     0.3200 hn         1 3B9       0.500000
     41 H10         -2.3260     3.3650    -0.7350 hc         1 3B9       0.039533
     42 H10A        -0.7490     2.6720    -1.1120 hc         1 3B9       0.039533
     43 H10B        -2.1780     2.1790    -2.0430 hc         1 3B9       0.039533
     44 H11         -1.7450     0.8850     2.0960 hc         1 3B9       0.039533
     45 H11A        -0.5040     1.9190     1.3600 hc         1 3B9       0.039533
     46 H11B        -2.0890     2.5880     1.7440 hc         1 3B9       0.039533
     47 HN6          0.4830     0.6940    -1.4320 hn         1 3B9       0.309500
     48 H14          3.2500    -0.9540     1.7600 ha         1 3B9       0.125000
     49 H17          4.5360     1.7420    -2.2250 ha         1 3B9       0.130500
     50 H18          2.1620     1.2250    -1.8420 ha         1 3B9       0.125000
     51 H20          8.9080     1.7110     0.2020 ha         1 3B9       0.128500
     52 H21         10.8300     0.1760     0.6230 ha         1 3B9       0.117000
     53 H22         10.5990    -2.2640     0.1590 ha         1 3B9       0.117000
     54 H23          8.4530    -3.1680    -0.7330 ha         1 3B9       0.117000
     55 H24          6.5370    -1.6370    -1.1600 ha         1 3B9       0.128500
     56 N4          -7.5950    -3.1670    -0.8130 nv         1 3B9      -1.059900
@<TRIPOS>BOND
     1     1    21 ar  
     2     1    22 ar  
     3     1    32 1   
     4     2    11 ar  
     5     2    12 ar  
     6     2    56 1   
     7     3     6 ar  
     8     3    11 ar  
     9     3    14 1   
    10     4     6 ar  
    11     4    12 ar  
    12     4    13 ar  
    13     5     9 1   
    14     5    10 1   
    15     5    15 1   
    16     5    16 1   
    17     6     7 ar  
    18     7     8 ar  
    19     7    33 1   
    20     8     9 ar  
    21     8    34 1   
    22     9    13 ar  
    23    10    17 1   
    24    10    35 1   
    25    10    36 1   
    26    14    39 1   
    27    14    40 1   
    28    15    41 1   
    29    15    42 1   
    30    15    43 1   
    31    16    44 1   
    32    16    45 1   
    33    16    46 1   
    34    17    18 1   
    35    17    47 1   
    36    18    19 2   
    37    18    20 1   
    38    20    21 ar  
    39    20    24 ar  
    40    21    48 1   
    41    22    23 ar  
    42    22    25 1   
    43    23    24 ar  
    44    23    49 1   
    45    24    50 1   
    46    25    26 1   
    47    26    27 ar  
    48    26    31 ar  
    49    27    28 ar  
    50    27    51 1   
    51    28    29 ar  
    52    28    52 1   
    53    29    30 ar  
    54    29    53 1   
    55    30    31 ar  
    56    30    54 1   
    57    31    55 1   
    58    37    56 1   
    59    38    56 1   
@<TRIPOS>SUBSTRUCTURE
     1 3B9         1 TEMP              0 ****  ****    0 ROOT
