@<TRIPOS>MOLECULE
3BB
   13    12     1     0     0
SMALL
abcg2


@<TRIPOS>ATOM
      1 BR1         -0.4580     0.2690    -1.1820 br         1 3BB      -0.114700
      2 C1           2.1560     0.1180    -0.1860 c2         1 3BB      -0.279000
      3 C2           0.8860    -0.1020     0.1170 c2         1 3BB      -0.059500
      4 C3           0.3810    -0.6120     1.4290 c3         1 3BB      -0.041200
      5 C4          -0.3130     0.4680     2.2480 c3         1 3BB       0.164600
      6 O5          -0.7330    -0.1140     3.4620 oh         1 3BB      -0.662000
      7 H11          2.4850     0.5030    -1.1400 ha         1 3BB       0.179500
      8 H12          2.9230    -0.0900     0.5490 ha         1 3BB       0.179500
      9 H31          1.2360    -0.9930     1.9920 hc         1 3BB       0.067700
     10 H32         -0.3010    -1.4520     1.2720 hc         1 3BB       0.067700
     11 H41         -1.1630     0.8780     1.6900 h1         1 3BB       0.026200
     12 H42          0.3900     1.2920     2.4150 h1         1 3BB       0.026200
     13 HO5         -1.0520     0.5890     4.0320 ho         1 3BB       0.445000
@<TRIPOS>BOND
     1     1     3 1   
     2     2     3 2   
     3     2     7 1   
     4     2     8 1   
     5     3     4 1   
     6     4     5 1   
     7     4     9 1   
     8     4    10 1   
     9     5     6 1   
    10     5    11 1   
    11     5    12 1   
    12     6    13 1   
@<TRIPOS>SUBSTRUCTURE
     1 3BB         1 TEMP              0 ****  ****    0 ROOT
