@<TRIPOS>MOLECULE
3BB
   13    12     1     0     0
SMALL
No Charge or Current Charge


@<TRIPOS>ATOM
      1 Br1         -0.4720     0.2700    -1.1880 br         1 3BB      -0.114700
      2 C1           2.1850     0.1180    -0.2080 c2         1 3BB      -0.279000
      3 C2           0.8950    -0.0840     0.0940 c2         1 3BB      -0.059500
      4 C3           0.3930    -0.6180     1.4230 c3         1 3BB      -0.041200
      5 C4          -0.3030     0.4620     2.2750 c3         1 3BB       0.164600
      6 O5          -0.7280    -0.0990     3.5230 oh         1 3BB      -0.662000
      7 H11          2.4900     0.4960    -1.1840 ha         1 3BB       0.179500
      8 H12          2.9820    -0.0870     0.5080 ha         1 3BB       0.179500
      9 H31          1.2300    -1.0300     2.0010 hc         1 3BB       0.067700
     10 H32         -0.3020    -1.4490     1.2530 hc         1 3BB       0.067700
     11 H41         -1.1660     0.8610     1.7240 h1         1 3BB       0.026200
     12 H42          0.3970     1.2910     2.4480 h1         1 3BB       0.026200
     13 HO5         -1.1640     0.6240     4.0280 ho         1 3BB       0.445000
@<TRIPOS>BOND
     1     1     3 1   
     2     2     3 2   
     3     2     7 1   
     4     2     8 1   
     5     3     4 1   
     6     4     5 1   
     7     4     9 1   
     8     4    10 1   
     9     5     6 1   
    10     5    11 1   
    11     5    12 1   
    12     6    13 1   
@<TRIPOS>SUBSTRUCTURE
     1 3BB         1 TEMP              0 ****  ****    0 ROOT
