@<TRIPOS>MOLECULE
3BC
  108   111     1     0     0
SMALL
No Charge or Current Charge


@<TRIPOS>ATOM
      1 C1           8.8400    -0.1700     0.2310 c          1 3BC       0.653100
      2 O2           9.3150    -1.1070    -0.3890 o          1 3BC      -0.560000
      3 O3           9.4730     0.9810     0.6090 os         1 3BC      -0.476100
      4 C4          10.8710     1.2290     0.3270 c3         1 3BC       0.225000
      5 C5          11.0940     1.2730    -1.2070 c3         1 3BC      -0.108433
      6 C6          11.1410     2.6210     0.9390 c3         1 3BC      -0.108433
      7 C7          11.7420     0.1610     1.0380 c3         1 3BC      -0.108433
      8 N8           7.5470    -0.0960     0.6560 ns         1 3BC      -0.498900
      9 C9           6.5140    -1.1400     0.4570 c3         1 3BC       0.064700
     10 C10          6.3410    -2.0470     1.7390 c3         1 3BC      -0.047000
     11 C11          5.4030    -3.2510     1.4540 c3         1 3BC      -0.089767
     12 C12          7.7150    -2.6260     2.1860 c3         1 3BC      -0.089767
     13 C13          5.7460    -1.2290     2.9200 c3         1 3BC      -0.089767
     14 C14          5.1910    -0.4400    -0.0140 c          1 3BC       0.599100
     15 O15          4.9120     0.6960     0.3620 o          1 3BC      -0.613100
     16 N16          4.2850    -1.1440    -0.8380 n          1 3BC      -0.394800
     17 C17          4.7430    -2.1620    -1.8180 c5         1 3BC       0.134000
     18 C18          2.9420    -0.5630    -1.1520 c5         1 3BC       0.060700
     19 C19          2.4530    -1.4030    -2.3480 cx         1 3BC      -0.134700
     20 C20          3.5420    -2.3610    -2.7500 cx         1 3BC      -0.126700
     21 C21          3.1740    -1.2080    -3.6740 cx         1 3BC      -0.078000
     22 C22          2.4090    -1.5340    -4.9550 c3         1 3BC      -0.065100
     23 C23          4.1230    -0.0240    -3.9340 c3         1 3BC      -0.065100
     24 C24          1.9580    -0.6230     0.0580 c          1 3BC       0.601100
     25 O25          2.0740    -1.2780     1.0860 o          1 3BC      -0.596100
     26 N26          0.8590     0.1720    -0.2090 ns         1 3BC      -0.490900
     27 C27         -0.2550     0.4190     0.7370 c3         1 3BC       0.031700
     28 C28         -0.0380     1.7170     1.5600 c3         1 3BC      -0.051400
     29 C29          1.2340     1.7120     2.4060 cx         1 3BC      -0.129700
     30 C30          1.3100     2.4800     3.7050 cx         1 3BC      -0.127900
     31 C31          1.2940     0.9670     3.7180 cx         1 3BC      -0.127900
     32 C33         -1.6100     0.4480    -0.0220 c          1 3BC       0.492100
     33 O34         -2.8920    -0.1790     2.0220 o          1 3BC      -0.596100
     34 N35         -4.1140     0.2650     0.1450 ns         1 3BC      -0.470900
     35 C36         -5.4540     0.0330     0.7310 c3         1 3BC       0.016000
     36 C37         -6.5830     0.2490    -0.3020 c          1 3BC       0.597100
     37 O38         -6.3720     0.5750    -1.4640 o          1 3BC      -0.600100
     38 C39         -2.9210     0.1430     0.8370 c          1 3BC       0.504100
     39 N40         -7.8570     0.0460     0.1780 ns         1 3BC      -0.481900
     40 C41         -9.0860     0.2120    -0.6250 c3         1 3BC       0.087000
     41 C42        -10.1790    -0.7000    -0.0690 ca         1 3BC      -0.115300
     42 C43        -10.8610    -0.3650     1.1190 ca         1 3BC      -0.095000
     43 C44        -10.5120    -1.8930    -0.7420 ca         1 3BC      -0.095000
     44 C45        -11.8680    -1.2070     1.6210 ca         1 3BC      -0.111000
     45 C46        -11.5200    -2.7340    -0.2390 ca         1 3BC      -0.111000
     46 C47        -12.1990    -2.3910     0.9410 ca         1 3BC      -0.097000
     47 C48         -9.5350     1.7130    -0.6850 c          1 3BC       0.590100
     48 O49         -9.0430     2.5580     0.0590 o          1 3BC      -0.602100
     49 N50        -10.5560     2.0880    -1.5950 n          1 3BC      -0.395800
     50 C51        -11.0360     3.4880    -1.6410 c3         1 3BC       0.087800
     51 C52        -11.1480     1.1270    -2.5560 c3         1 3BC       0.087800
     52 H51         10.3460     1.9120    -1.6910 hc         1 3BC       0.049033
     53 H52         12.0860     1.6810    -1.4360 hc         1 3BC       0.049033
     54 H53         11.0420     0.2770    -1.6580 hc         1 3BC       0.049033
     55 H61         10.9450     2.6180     2.0180 hc         1 3BC       0.049033
     56 H62         12.1860     2.9190     0.7850 hc         1 3BC       0.049033
     57 H63         10.5000     3.3820     0.4770 hc         1 3BC       0.049033
     58 H71         11.6750    -0.8160     0.5460 hc         1 3BC       0.049033
     59 H72         12.7970     0.4590     1.0240 hc         1 3BC       0.049033
     60 H73         11.4370     0.0430     2.0840 hc         1 3BC       0.049033
     61 HN8          7.2860     0.7640     1.1220 hn         1 3BC       0.341500
     62 H9           6.8510    -1.7810    -0.3660 h1         1 3BC       0.086700
     63 H111         5.8010    -3.8760     0.6460 hc         1 3BC       0.040589
     64 H112         5.3030    -3.8860     2.3420 hc         1 3BC       0.040589
     65 H113         4.3950    -2.9230     1.1770 hc         1 3BC       0.040589
     66 H121         8.3980    -1.8360     2.5190 hc         1 3BC       0.040589
     67 H122         7.5930    -3.3240     3.0240 hc         1 3BC       0.040589
     68 H123         8.1960    -3.1710     1.3650 hc         1 3BC       0.040589
     69 H131         4.7370    -0.8660     2.6890 hc         1 3BC       0.040589
     70 H132         5.6730    -1.8460     3.8250 hc         1 3BC       0.040589
     71 H133         6.3730    -0.3620     3.1600 hc         1 3BC       0.040589
     72 H171         5.0050    -3.0980    -1.3130 h1         1 3BC       0.061200
     73 H172         5.6380    -1.8250    -2.3600 h1         1 3BC       0.061200
     74 H18          3.0380     0.4970    -1.4230 h1         1 3BC       0.083700
     75 H19          1.4200    -1.7480    -2.3780 hc         1 3BC       0.111700
     76 H20          3.2680    -3.3680    -3.0570 hc         1 3BC       0.101700
     77 H221         1.7210    -2.3760    -4.8120 hc         1 3BC       0.041533
     78 H222         1.8150    -0.6750    -5.2890 hc         1 3BC       0.041533
     79 H223         3.0960    -1.8060    -5.7660 hc         1 3BC       0.041533
     80 H231         4.8290    -0.2640    -4.7380 hc         1 3BC       0.041533
     81 H232         3.5570     0.8620    -4.2460 hc         1 3BC       0.041533
     82 H233         4.7200     0.2690    -3.0650 hc         1 3BC       0.041533
     83 HN26         0.8360     0.6360    -1.1110 hn         1 3BC       0.323500
     84 H27         -0.3160    -0.4250     1.4380 h1         1 3BC       0.113700
     85 H281        -0.0120     2.5740     0.8750 hc         1 3BC       0.056700
     86 H282        -0.9080     1.8740     2.2100 hc         1 3BC       0.056700
     87 H29          2.1390     1.7070     1.8010 hc         1 3BC       0.079700
     88 H301         2.2460     2.9790     3.9440 hc         1 3BC       0.074200
     89 H302         0.4180     2.9980     4.0490 hc         1 3BC       0.074200
     90 H311         0.3910     0.4730     4.0680 hc         1 3BC       0.074200
     91 H312         2.2190     0.4500     3.9610 hc         1 3BC       0.074200
     92 HN35        -4.0530     0.5320    -0.8360 hn         1 3BC       0.363500
     93 H361        -5.6160     0.7240     1.5680 h1         1 3BC       0.072700
     94 H362        -5.5210    -0.9960     1.1050 h1         1 3BC       0.072700
     95 HN40        -7.9490    -0.2160     1.1520 hn         1 3BC       0.327500
     96 H41         -8.8600    -0.0920    -1.6550 h1         1 3BC       0.089700
     97 H43        -10.6140     0.5480     1.6580 ha         1 3BC       0.123000
     98 H44         -9.9920    -2.1700    -1.6570 ha         1 3BC       0.123000
     99 H45        -12.3920    -0.9420     2.5370 ha         1 3BC       0.118500
    100 H46        -11.7740    -3.6520    -0.7650 ha         1 3BC       0.118500
    101 H47        -12.9790    -3.0430     1.3300 ha         1 3BC       0.117000
    102 H511       -11.9260     3.5750    -2.2780 h1         1 3BC       0.042533
    103 H512       -11.2970     3.8250    -0.6300 h1         1 3BC       0.042533
    104 H513       -10.2450     4.1350    -2.0430 h1         1 3BC       0.042533
    105 H521       -10.3570     0.6030    -3.1060 h1         1 3BC       0.042533
    106 H522       -11.7670     0.3970    -2.0190 h1         1 3BC       0.042533
    107 H523       -11.7810     1.6500    -3.2840 h1         1 3BC       0.042533
    108 O32         -1.6790     0.6800    -1.2320 o          1 3BC      -0.494100
@<TRIPOS>BOND
     1     1     2 2   
     2     1     3 1   
     3     1     8 1   
     4     3     4 1   
     5     4     5 1   
     6     4     6 1   
     7     4     7 1   
     8     5    52 1   
     9     5    53 1   
    10     5    54 1   
    11     6    55 1   
    12     6    56 1   
    13     6    57 1   
    14     7    58 1   
    15     7    59 1   
    16     7    60 1   
    17     8     9 1   
    18     8    61 1   
    19     9    10 1   
    20     9    14 1   
    21     9    62 1   
    22    10    11 1   
    23    10    12 1   
    24    10    13 1   
    25    11    63 1   
    26    11    64 1   
    27    11    65 1   
    28    12    66 1   
    29    12    67 1   
    30    12    68 1   
    31    13    69 1   
    32    13    70 1   
    33    13    71 1   
    34    14    15 2   
    35    14    16 1   
    36    16    17 1   
    37    16    18 1   
    38    17    20 1   
    39    17    72 1   
    40    17    73 1   
    41    18    19 1   
    42    18    24 1   
    43    18    74 1   
    44    19    20 1   
    45    19    21 1   
    46    19    75 1   
    47    20    21 1   
    48    20    76 1   
    49    21    22 1   
    50    21    23 1   
    51    22    77 1   
    52    22    78 1   
    53    22    79 1   
    54    23    80 1   
    55    23    81 1   
    56    23    82 1   
    57    24    25 2   
    58    24    26 1   
    59    26    27 1   
    60    26    83 1   
    61    27    28 1   
    62    27    32 1   
    63    27    84 1   
    64    28    29 1   
    65    28    85 1   
    66    28    86 1   
    67    29    30 1   
    68    29    31 1   
    69    29    87 1   
    70    30    31 1   
    71    30    88 1   
    72    30    89 1   
    73    31    90 1   
    74    31    91 1   
    75    32    38 1   
    76    32   108 2   
    77    33    38 2   
    78    34    35 1   
    79    34    38 1   
    80    34    92 1   
    81    35    36 1   
    82    35    93 1   
    83    35    94 1   
    84    36    37 2   
    85    36    39 1   
    86    39    40 1   
    87    39    95 1   
    88    40    41 1   
    89    40    47 1   
    90    40    96 1   
    91    41    42 ar  
    92    41    43 ar  
    93    42    44 ar  
    94    42    97 1   
    95    43    45 ar  
    96    43    98 1   
    97    44    46 ar  
    98    44    99 1   
    99    45    46 ar  
   100    45   100 1   
   101    46   101 1   
   102    47    48 2   
   103    47    49 1   
   104    49    50 1   
   105    49    51 1   
   106    50   102 1   
   107    50   103 1   
   108    50   104 1   
   109    51   105 1   
   110    51   106 1   
   111    51   107 1   
@<TRIPOS>SUBSTRUCTURE
     1 3BC         1 TEMP              0 ****  ****    0 ROOT
