@<TRIPOS>MOLECULE
3BC
  108   111     1     0     0
SMALL
bcc


@<TRIPOS>ATOM
      1 C1           7.6550    -1.4770     0.2930 c          1 3BC       0.769100
      2 O2           7.6620    -2.3000    -0.6010 o          1 3BC      -0.609000
      3 O3           8.7290    -0.8760     0.8030 os         1 3BC      -0.452900
      4 C4          10.0830    -1.2050     0.3930 c3         1 3BC       0.201800
      5 C5          10.3110    -0.8660    -1.0760 c3         1 3BC      -0.108433
      6 C6          10.9360    -0.2940     1.2680 c3         1 3BC      -0.108433
      7 C7          10.4080    -2.6620     0.7000 c3         1 3BC      -0.108433
      8 N8           6.5440    -1.0390     0.9230 ns         1 3BC      -0.565900
      9 C9           5.2160    -1.4780     0.5740 c3         1 3BC       0.064700
     10 C10          4.5680    -2.3640     1.6760 c3         1 3BC      -0.047000
     11 C11          3.1980    -2.8430     1.1980 c3         1 3BC      -0.089767
     12 C12          5.4680    -3.5850     1.8870 c3         1 3BC      -0.089767
     13 C13          4.4090    -1.6270     3.0060 c3         1 3BC      -0.089767
     14 C14          4.4000    -0.2300     0.2450 c          1 3BC       0.666100
     15 O15          4.4230     0.7360     0.9980 o          1 3BC      -0.613100
     16 N16          3.6910    -0.2010    -0.8970 n          1 3BC      -0.461800
     17 C17          3.5480    -1.2650    -1.8900 c5         1 3BC       0.134000
     18 C18          2.9110     0.9830    -1.1970 c5         1 3BC       0.060700
     19 C19          2.3950     0.7580    -2.6040 cx         1 3BC      -0.134700
     20 C20          2.8000    -0.6230    -3.0300 cx         1 3BC      -0.126700
     21 C21          3.3930     0.5760    -3.7140 cx         1 3BC      -0.078000
     22 C22          2.8630     0.8600    -5.1010 c3         1 3BC      -0.065100
     23 C23          4.8480     0.9480    -3.5530 c3         1 3BC      -0.065100
     24 C24          1.7320     1.1150    -0.2410 c          1 3BC       0.668100
     25 O25          1.1950     0.1500     0.2750 o          1 3BC      -0.596100
     26 N26          1.2930     2.3700    -0.0620 ns         1 3BC      -0.557900
     27 C27          0.0980     2.6360     0.6910 c3         1 3BC       0.031700
     28 C28         -0.0840     4.1470     0.8890 c3         1 3BC      -0.051400
     29 C29          0.9670     4.7290     1.7990 cx         1 3BC      -0.129700
     30 C30          0.6270     5.9130     2.6490 cx         1 3BC      -0.127900
     31 C31          0.8190     4.5650     3.2800 cx         1 3BC      -0.127900
     32 C33         -1.1130     2.0610    -0.0160 c          1 3BC       0.492100
     33 O34         -2.3020     2.0060     2.0720 o          1 3BC      -0.596100
     34 N35         -3.3670     1.2550     0.2210 ns         1 3BC      -0.537900
     35 C36         -4.5900     0.9000     0.8820 c3         1 3BC       0.016000
     36 C37         -5.4870     0.1440    -0.0800 c          1 3BC       0.664100
     37 O38         -5.2310     0.0500    -1.2690 o          1 3BC      -0.600100
     38 C39         -2.3320     1.7720     0.8740 c          1 3BC       0.571100
     39 N40         -6.5670    -0.4100     0.4880 ns         1 3BC      -0.548900
     40 C41         -7.5970    -1.0290    -0.3090 c3         1 3BC       0.087000
     41 C42         -8.5470    -1.7820     0.5970 ca         1 3BC      -0.115300
     42 C43         -9.4780    -1.0930     1.3700 ca         1 3BC      -0.113000
     43 C44         -8.4750    -3.1670     0.6940 ca         1 3BC      -0.113000
     44 C45        -10.3250    -1.7820     2.2260 ca         1 3BC      -0.129000
     45 C46         -9.3230    -3.8570     1.5490 ca         1 3BC      -0.129000
     46 C47        -10.2500    -3.1650     2.3170 ca         1 3BC      -0.115000
     47 C48         -8.3490     0.0420    -1.1190 c          1 3BC       0.657100
     48 O49         -8.2550     1.2190    -0.8060 o          1 3BC      -0.602100
     49 N50         -9.1120    -0.3770    -2.1450 n          1 3BC      -0.462800
     50 C51         -9.9340     0.6050    -2.8300 c3         1 3BC       0.087800
     51 C52         -9.3920    -1.7680    -2.4390 c3         1 3BC       0.087800
     52 H51         10.0370     0.1690    -1.2830 hc         1 3BC       0.049033
     53 H52         11.3720    -0.9780    -1.3060 hc         1 3BC       0.049033
     54 H53          9.7540    -1.5160    -1.7460 hc         1 3BC       0.049033
     55 H61         10.7740    -0.4950     2.3280 hc         1 3BC       0.049033
     56 H62         11.9920    -0.4600     1.0550 hc         1 3BC       0.049033
     57 H63         10.7190     0.7580     1.0790 hc         1 3BC       0.049033
     58 H71          9.8530    -3.3570     0.0750 hc         1 3BC       0.049033
     59 H72         11.4710    -2.8330     0.5270 hc         1 3BC       0.049033
     60 H73         10.2030    -2.8940     1.7470 hc         1 3BC       0.049033
     61 HN8          6.6390    -0.3220     1.6250 hn         1 3BC       0.341500
     62 H9           5.3180    -2.1080    -0.3090 h1         1 3BC       0.086700
     63 H111         3.2750    -3.4260     0.2770 hc         1 3BC       0.040589
     64 H112         2.7460    -3.4910     1.9510 hc         1 3BC       0.040589
     65 H113         2.5040    -2.0190     1.0210 hc         1 3BC       0.040589
     66 H121         6.4400    -3.3100     2.2980 hc         1 3BC       0.040589
     67 H122         4.9980    -4.2730     2.5920 hc         1 3BC       0.040589
     68 H123         5.6340    -4.1250     0.9540 hc         1 3BC       0.040589
     69 H131         3.6950    -0.8070     2.9430 hc         1 3BC       0.040589
     70 H132         4.0450    -2.3240     3.7630 hc         1 3BC       0.040589
     71 H133         5.3560    -1.2240     3.3690 hc         1 3BC       0.040589
     72 H171         2.9670    -2.1000    -1.4950 h1         1 3BC       0.061200
     73 H172         4.5230    -1.6510    -2.1950 h1         1 3BC       0.061200
     74 H18          3.5380     1.8780    -1.1330 h1         1 3BC       0.083700
     75 H19          1.4190     1.1630    -2.8470 hc         1 3BC       0.111700
     76 H20          2.1220    -1.2580    -3.5870 hc         1 3BC       0.101700
     77 H221         1.8070     0.6000    -5.1930 hc         1 3BC       0.041533
     78 H222         2.9660     1.9190    -5.3460 hc         1 3BC       0.041533
     79 H223         3.4120     0.2890    -5.8520 hc         1 3BC       0.041533
     80 H231         5.4570     0.4000    -4.2740 hc         1 3BC       0.041533
     81 H232         4.9890     2.0130    -3.7470 hc         1 3BC       0.041533
     82 H233         5.2530     0.7410    -2.5640 hc         1 3BC       0.041533
     83 HN26         1.7360     3.1270    -0.5600 hn         1 3BC       0.323500
     84 H27          0.1790     2.1750     1.6780 h1         1 3BC       0.113700
     85 H281        -0.0690     4.6440    -0.0860 hc         1 3BC       0.056700
     86 H282        -1.0720     4.3340     1.3130 hc         1 3BC       0.056700
     87 H29          1.9820     4.6990     1.4150 hc         1 3BC       0.079700
     88 H301         1.3880     6.6670     2.8060 hc         1 3BC       0.074200
     89 H302        -0.3810     6.3050     2.5910 hc         1 3BC       0.074200
     90 H311        -0.0620     4.0480     3.6420 hc         1 3BC       0.074200
     91 H312         1.7100     4.3950     3.8710 hc         1 3BC       0.074200
     92 HN35        -3.3080     1.1020    -0.7760 hn         1 3BC       0.363500
     93 H361        -5.1250     1.7910     1.2290 h1         1 3BC       0.072700
     94 H362        -4.3900     0.2900     1.7660 h1         1 3BC       0.072700
     95 HN40        -6.7640    -0.2220     1.4590 hn         1 3BC       0.327500
     96 H41         -7.1140    -1.7370    -0.9860 h1         1 3BC       0.089700
     97 H43         -9.5480    -0.0130     1.3090 ha         1 3BC       0.141000
     98 H44         -7.7550    -3.7120     0.0950 ha         1 3BC       0.141000
     99 H45        -11.0470    -1.2350     2.8190 ha         1 3BC       0.136500
    100 H46         -9.2580    -4.9350     1.6150 ha         1 3BC       0.136500
    101 H47        -10.9130    -3.7030     2.9820 ha         1 3BC       0.135000
    102 H511       -10.2250     0.2080    -3.7990 h1         1 3BC       0.042533
    103 H512       -10.8430     0.8360    -2.2700 h1         1 3BC       0.042533
    104 H513        -9.3850     1.5290    -2.9910 h1         1 3BC       0.042533
    105 H521        -8.5410    -2.4100    -2.2320 h1         1 3BC       0.042533
    106 H522       -10.2520    -2.1410    -1.8780 h1         1 3BC       0.042533
    107 H523        -9.6100    -1.8680    -3.5010 h1         1 3BC       0.042533
    108 O32         -1.1530     1.8530    -1.2000 o          1 3BC      -0.494100
@<TRIPOS>BOND
     1     1     2 2   
     2     1     3 1   
     3     1     8 1   
     4     3     4 1   
     5     4     5 1   
     6     4     6 1   
     7     4     7 1   
     8     5    52 1   
     9     5    53 1   
    10     5    54 1   
    11     6    55 1   
    12     6    56 1   
    13     6    57 1   
    14     7    58 1   
    15     7    59 1   
    16     7    60 1   
    17     8     9 1   
    18     8    61 1   
    19     9    10 1   
    20     9    14 1   
    21     9    62 1   
    22    10    11 1   
    23    10    12 1   
    24    10    13 1   
    25    11    63 1   
    26    11    64 1   
    27    11    65 1   
    28    12    66 1   
    29    12    67 1   
    30    12    68 1   
    31    13    69 1   
    32    13    70 1   
    33    13    71 1   
    34    14    15 2   
    35    14    16 1   
    36    16    17 1   
    37    16    18 1   
    38    17    20 1   
    39    17    72 1   
    40    17    73 1   
    41    18    19 1   
    42    18    24 1   
    43    18    74 1   
    44    19    20 1   
    45    19    21 1   
    46    19    75 1   
    47    20    21 1   
    48    20    76 1   
    49    21    22 1   
    50    21    23 1   
    51    22    77 1   
    52    22    78 1   
    53    22    79 1   
    54    23    80 1   
    55    23    81 1   
    56    23    82 1   
    57    24    25 2   
    58    24    26 1   
    59    26    27 1   
    60    26    83 1   
    61    27    28 1   
    62    27    32 1   
    63    27    84 1   
    64    28    29 1   
    65    28    85 1   
    66    28    86 1   
    67    29    30 1   
    68    29    31 1   
    69    29    87 1   
    70    30    31 1   
    71    30    88 1   
    72    30    89 1   
    73    31    90 1   
    74    31    91 1   
    75    32    38 1   
    76    32   108 2   
    77    33    38 2   
    78    34    35 1   
    79    34    38 1   
    80    34    92 1   
    81    35    36 1   
    82    35    93 1   
    83    35    94 1   
    84    36    37 2   
    85    36    39 1   
    86    39    40 1   
    87    39    95 1   
    88    40    41 1   
    89    40    47 1   
    90    40    96 1   
    91    41    42 ar  
    92    41    43 ar  
    93    42    44 ar  
    94    42    97 1   
    95    43    45 ar  
    96    43    98 1   
    97    44    46 ar  
    98    44    99 1   
    99    45    46 ar  
   100    45   100 1   
   101    46   101 1   
   102    47    48 2   
   103    47    49 1   
   104    49    50 1   
   105    49    51 1   
   106    50   102 1   
   107    50   103 1   
   108    50   104 1   
   109    51   105 1   
   110    51   106 1   
   111    51   107 1   
@<TRIPOS>SUBSTRUCTURE
     1 3BC         1 TEMP              0 ****  ****    0 ROOT
