@<TRIPOS>MOLECULE
3BD
   55    58     1     0     0
SMALL
No Charge or Current Charge


@<TRIPOS>ATOM
      1 C12         18.8230    31.1730    49.2180 c          1 3BD       0.631700
      2 C13         24.6870    33.1230    51.4350 c6         1 3BD       0.200800
      3 C8          22.1230    37.1900    53.2200 c3         1 3BD      -0.086300
      4 C9          23.6660    37.3550    53.3830 c3         1 3BD      -0.078767
      5 C10         21.5750    38.4670    52.5250 c3         1 3BD      -0.078767
      6 C11         21.5020    37.0690    54.6400 c3         1 3BD      -0.078767
      7 C14         25.5440    31.9270    50.9090 c6         1 3BD       0.216800
      8 C15         24.6130    32.3240    48.6070 c6         1 3BD       0.216800
      9 O1          17.6700    31.0010    48.8580 o          1 3BD      -0.640100
     10 N3          20.4260    35.7050    52.1990 nb         1 3BD      -0.211000
     11 C1          18.3780    33.2790    50.5850 ca         1 3BD       0.436900
     12 C2          19.2820    32.3700    50.0120 ca         1 3BD      -0.291600
     13 C3          20.6530    32.6370    50.2040 ca         1 3BD       0.046000
     14 C4          20.0450    34.6300    51.4820 ca         1 3BD       0.180000
     15 C7          21.7450    35.9410    52.3800 ca         1 3BD       0.216300
     16 N1          18.7400    34.3590    51.2890 nb         1 3BD      -0.253000
     17 N2          22.7390    35.1790    51.8850 nb         1 3BD      -0.297000
     18 C5          21.0350    33.7790    50.9360 ca         1 3BD      -0.299000
     19 C6          22.3890    34.1060    51.1610 ca         1 3BD       0.431900
     20 N5          19.7460    30.2570    48.8640 nt         1 3BD      -0.598000
     21 N6          23.4460    33.3430    50.6280 nh         1 3BD      -0.787300
     22 N7          25.8340    31.9930    49.4290 nh         1 3BD      -0.779300
     23 C16         23.7730    33.5110    49.1800 c6         1 3BD       0.200800
     24 C17         26.9420    31.3040    48.8610 ca         1 3BD       0.384900
     25 N8          26.9810    31.1950    47.5130 nb         1 3BD      -0.246500
     26 C18         28.0320    30.5450    46.9780 ca         1 3BD       0.152900
     27 C19         29.0440    30.0050    47.7840 ca         1 3BD      -0.283000
     28 C20         28.9210    30.1670    49.1720 ca         1 3BD       0.152900
     29 N9          27.8720    30.8160    49.7120 nb         1 3BD      -0.246500
     30 H13         24.4290    32.9270    52.4860 h1         1 3BD       0.064200
     31 H13A        25.3100    34.0300    51.4180 h1         1 3BD       0.064200
     32 H9          24.1580    37.4710    52.4090 hc         1 3BD       0.040367
     33 H9A         23.9050    38.2420    53.9820 hc         1 3BD       0.040367
     34 H9B         24.1060    36.4860    53.8880 hc         1 3BD       0.040367
     35 H10         21.8520    39.3700    53.0830 hc         1 3BD       0.040367
     36 H10A        21.9790    38.5600    51.5090 hc         1 3BD       0.040367
     37 H10B        20.4800    38.4450    52.4520 hc         1 3BD       0.040367
     38 H11         21.8510    36.1570    55.1390 hc         1 3BD       0.040367
     39 H11A        21.7800    37.9260    55.2660 hc         1 3BD       0.040367
     40 H11B        20.4070    37.0330    54.5960 hc         1 3BD       0.040367
     41 H14         26.4730    31.9160    51.4980 h1         1 3BD       0.066200
     42 H14A        25.0100    30.9930    51.1360 h1         1 3BD       0.066200
     43 H15         24.8860    32.5950    47.5770 h1         1 3BD       0.066200
     44 H15A        23.9630    31.4390    48.5430 h1         1 3BD       0.066200
     45 H3          21.4120    31.9780    49.7930 ha         1 3BD       0.113000
     46 HN4         16.4470    33.9470    50.6240 hn         1 3BD       0.522500
     47 HN4A        16.7100    32.4310    49.8170 hn         1 3BD       0.522500
     48 HN5         19.4550    29.4550    48.3270 hn         1 3BD       0.318000
     49 HN5A        20.7040    30.3580    49.1570 hn         1 3BD       0.318000
     50 H16         24.3430    34.4400    49.0360 h1         1 3BD       0.064200
     51 H16A        22.8530    33.6060    48.5840 h1         1 3BD       0.064200
     52 H18         28.0600    30.4590    45.8930 h4         1 3BD       0.022100
     53 H19         29.8910    29.4810    47.3500 ha         1 3BD       0.136000
     54 H20         29.6680    29.7740    49.8600 h4         1 3BD       0.022100
     55 N4          17.0350    33.1280    50.4910 nv         1 3BD      -1.070900
@<TRIPOS>BOND
     1     1     9 2   
     2     1    12 1   
     3     1    20 1   
     4     2     7 1   
     5     2    21 1   
     6     2    30 1   
     7     2    31 1   
     8     3     4 1   
     9     3     5 1   
    10     3     6 1   
    11     3    15 1   
    12     4    32 1   
    13     4    33 1   
    14     4    34 1   
    15     5    35 1   
    16     5    36 1   
    17     5    37 1   
    18     6    38 1   
    19     6    39 1   
    20     6    40 1   
    21     7    22 1   
    22     7    41 1   
    23     7    42 1   
    24     8    22 1   
    25     8    23 1   
    26     8    43 1   
    27     8    44 1   
    28    10    14 ar  
    29    10    15 ar  
    30    11    12 ar  
    31    11    16 ar  
    32    11    55 1   
    33    12    13 ar  
    34    13    18 ar  
    35    13    45 1   
    36    14    16 ar  
    37    14    18 ar  
    38    15    17 ar  
    39    17    19 ar  
    40    18    19 ar  
    41    19    21 1   
    42    20    48 1   
    43    20    49 1   
    44    21    23 1   
    45    22    24 1   
    46    23    50 1   
    47    23    51 1   
    48    24    25 ar  
    49    24    29 ar  
    50    25    26 ar  
    51    26    27 ar  
    52    26    52 1   
    53    27    28 ar  
    54    27    53 1   
    55    28    29 ar  
    56    28    54 1   
    57    46    55 1   
    58    47    55 1   
@<TRIPOS>SUBSTRUCTURE
     1 3BD         1 TEMP              0 ****  ****    0 ROOT
