@<TRIPOS>MOLECULE
3BD
   55    58     1     0     0
SMALL
abcg2


@<TRIPOS>ATOM
      1 C12         18.8250    31.2240    49.2620 c          1 3BD       0.631700
      2 C13         24.9010    33.6220    51.0530 c6         1 3BD       0.200800
      3 C8          22.1600    36.9790    53.3800 c3         1 3BD      -0.086300
      4 C9          23.6040    36.8480    53.8750 c3         1 3BD      -0.078767
      5 C10         21.9970    38.3220    52.6420 c3         1 3BD      -0.078767
      6 C11         21.2120    36.9410    54.5900 c3         1 3BD      -0.078767
      7 C14         25.6950    32.3370    50.8590 c6         1 3BD       0.216800
      8 C15         24.3770    31.8230    48.8610 c6         1 3BD       0.216800
      9 O1          17.7340    31.1880    48.6760 o          1 3BD      -0.640100
     10 N3          20.5170    35.7640    52.0610 nb         1 3BD      -0.211000
     11 C1          18.4500    33.5520    50.2500 ca         1 3BD       0.436900
     12 C2          19.3420    32.4720    49.8890 ca         1 3BD      -0.291600
     13 C3          20.6790    32.6570    50.1400 ca         1 3BD       0.046000
     14 C4          20.1710    34.7370    51.2480 ca         1 3BD       0.180000
     15 C7          21.7910    35.8630    52.4020 ca         1 3BD       0.216300
     16 N1          18.8670    34.6050    50.9520 nb         1 3BD      -0.253000
     17 N2          22.7950    35.1150    51.9170 nb         1 3BD      -0.297000
     18 C5          21.1490    33.8270    50.7580 ca         1 3BD      -0.299000
     19 C6          22.5130    34.1430    51.0510 ca         1 3BD       0.431900
     20 N5          19.6010    30.1250    49.3440 nt         1 3BD      -0.598000
     21 N6          23.5580    33.4600    50.5010 nh         1 3BD      -0.787300
     22 N7          25.7010    31.9290    49.4610 nh         1 3BD      -0.779300
     23 C16         23.6070    33.1150    49.0770 c6         1 3BD       0.200800
     24 C17         26.7990    31.3650    48.8810 ca         1 3BD       0.384900
     25 N8          26.6650    30.8680    47.6340 nb         1 3BD      -0.246500
     26 C18         27.7560    30.3640    47.0670 ca         1 3BD       0.152900
     27 C19         28.9900    30.3280    47.7010 ca         1 3BD      -0.283000
     28 C20         29.0190    30.8460    48.9880 ca         1 3BD       0.152900
     29 N9          27.9490    31.3570    49.5880 nb         1 3BD      -0.246500
     30 H13         24.8250    33.8450    52.1130 h1         1 3BD       0.064200
     31 H13A        25.4140    34.4580    50.5630 h1         1 3BD       0.064200
     32 H9          24.3180    36.9210    53.0560 hc         1 3BD       0.040367
     33 H9A         23.8110    37.6500    54.5870 hc         1 3BD       0.040367
     34 H9B         23.7650    35.8930    54.3780 hc         1 3BD       0.040367
     35 H10         22.2490    39.1450    53.3150 hc         1 3BD       0.040367
     36 H10A        22.6590    38.3730    51.7750 hc         1 3BD       0.040367
     37 H10B        20.9700    38.4560    52.3010 hc         1 3BD       0.040367
     38 H11         21.3010    35.9910    55.1210 hc         1 3BD       0.040367
     39 H11A        21.4710    37.7450    55.2820 hc         1 3BD       0.040367
     40 H11B        20.1750    37.0670    54.2830 hc         1 3BD       0.040367
     41 H14         26.7170    32.4890    51.1880 h1         1 3BD       0.066200
     42 H14A        25.2500    31.5420    51.4710 h1         1 3BD       0.066200
     43 H15         24.4810    31.6330    47.7990 h1         1 3BD       0.066200
     44 H15A        23.8300    30.9870    49.3140 h1         1 3BD       0.066200
     45 H3          21.3850    31.8840    49.8770 ha         1 3BD       0.113000
     46 HN4         16.5480    34.2620    50.2110 hn         1 3BD       0.522500
     47 HN4A        16.8140    32.7450    49.3560 hn         1 3BD       0.522500
     48 HN5         19.2580    29.2690    48.9370 hn         1 3BD       0.318000
     49 HN5A        20.4080    30.0690    49.9410 hn         1 3BD       0.318000
     50 H16         24.1190    33.9280    48.5470 h1         1 3BD       0.064200
     51 H16A        22.6100    33.0290    48.6640 h1         1 3BD       0.064200
     52 H18         27.6350    29.9700    46.0620 h4         1 3BD       0.022100
     53 H19         29.8680    29.9130    47.2280 ha         1 3BD       0.136000
     54 H20         29.9380    30.8480    49.5660 h4         1 3BD       0.022100
     55 N4          17.1500    33.5100    49.9220 nv         1 3BD      -1.070900
@<TRIPOS>BOND
     1     1     9 2   
     2     1    12 1   
     3     1    20 1   
     4     2     7 1   
     5     2    21 1   
     6     2    30 1   
     7     2    31 1   
     8     3     4 1   
     9     3     5 1   
    10     3     6 1   
    11     3    15 1   
    12     4    32 1   
    13     4    33 1   
    14     4    34 1   
    15     5    35 1   
    16     5    36 1   
    17     5    37 1   
    18     6    38 1   
    19     6    39 1   
    20     6    40 1   
    21     7    22 1   
    22     7    41 1   
    23     7    42 1   
    24     8    22 1   
    25     8    23 1   
    26     8    43 1   
    27     8    44 1   
    28    10    14 ar  
    29    10    15 ar  
    30    11    12 ar  
    31    11    16 ar  
    32    11    55 1   
    33    12    13 ar  
    34    13    18 ar  
    35    13    45 1   
    36    14    16 ar  
    37    14    18 ar  
    38    15    17 ar  
    39    17    19 ar  
    40    18    19 ar  
    41    19    21 1   
    42    20    48 1   
    43    20    49 1   
    44    21    23 1   
    45    22    24 1   
    46    23    50 1   
    47    23    51 1   
    48    24    25 ar  
    49    24    29 ar  
    50    25    26 ar  
    51    26    27 ar  
    52    26    52 1   
    53    27    28 ar  
    54    27    53 1   
    55    28    29 ar  
    56    28    54 1   
    57    46    55 1   
    58    47    55 1   
@<TRIPOS>SUBSTRUCTURE
     1 3BD         1 TEMP              0 ****  ****    0 ROOT
