@<TRIPOS>MOLECULE
3BE
   31    32     1     0     0
SMALL
bcc


@<TRIPOS>ATOM
      1 CAK         -5.1170     0.0170     0.2260 ca         1 3BE      -0.047000
      2 CAP         -6.3770     0.5880     0.2840 ca         1 3BE      -0.029900
      3 BRAD        -7.8550    -0.4860     0.7530 br         1 3BE      -0.079100
      4 CAI         -6.5750     1.9320    -0.0020 ca         1 3BE      -0.077000
      5 CAH         -5.4810     2.7110    -0.3490 ca         1 3BE      -0.135000
      6 CAJ         -4.2090     2.1600    -0.4000 ca         1 3BE      -0.094000
      7 CAU         -4.0230     0.8120    -0.1060 ca         1 3BE      -0.156600
      8 CAO         -2.6910     0.1420    -0.1700 c          1 3BE       0.699700
      9 OAA         -2.5740    -1.0470    -0.3910 o          1 3BE      -0.539100
     10 NAN         -1.6250     0.9570     0.0480 ns         1 3BE      -0.333900
     11 NAM         -0.3870     0.4480    -0.0290 n2         1 3BE      -0.493300
     12 CAG          0.6190     1.1880     0.2300 ce         1 3BE       0.428800
     13 CAT          1.9600     0.6450     0.1430 ca         1 3BE      -0.298900
     14 CAL          3.0420     1.4730     0.4280 ca         1 3BE       0.018000
     15 CAQ          4.3370     1.0080     0.3550 ca         1 3BE      -0.179900
     16 BRAE         5.7690     2.1690     0.7540 br         1 3BE      -0.092100
     17 CAR          4.6010    -0.3190    -0.0110 ca         1 3BE       0.258100
     18 OAB          5.8150    -0.8470    -0.1060 oh         1 3BE      -0.459100
     19 CAV          3.5140    -1.1490    -0.2940 ca         1 3BE      -0.145900
     20 BRAF         3.8320    -2.9300    -0.7860 br         1 3BE      -0.043100
     21 CAS          2.1980    -0.6970    -0.2240 ca         1 3BE       0.279100
     22 OAC          1.2200    -1.5420    -0.5060 oh         1 3BE      -0.470100
     23 HAK         -4.9740    -1.0340     0.4400 ha         1 3BE       0.172000
     24 HAI         -7.5620     2.3720     0.0370 ha         1 3BE       0.153000
     25 HAH         -5.6270     3.7550    -0.5860 ha         1 3BE       0.142000
     26 HAJ         -3.3820     2.7910    -0.6990 ha         1 3BE       0.132000
     27 HNAN        -1.7480     1.9190     0.3400 hn         1 3BE       0.315500
     28 HAG          0.5150     2.2340     0.5200 h4         1 3BE      -0.007200
     29 HAL          2.8510     2.5010     0.7090 ha         1 3BE       0.144000
     30 HOAB         6.5110    -0.2060     0.0880 ho         1 3BE       0.449000
     31 HOAC         0.3540    -1.0740    -0.4180 ho         1 3BE       0.492000
@<TRIPOS>BOND
     1     1     2 ar  
     2     1     7 ar  
     3     1    23 1   
     4     2     3 1   
     5     2     4 ar  
     6     4     5 ar  
     7     4    24 1   
     8     5     6 ar  
     9     5    25 1   
    10     6     7 ar  
    11     6    26 1   
    12     7     8 1   
    13     8     9 2   
    14     8    10 1   
    15    10    11 1   
    16    10    27 1   
    17    11    12 2   
    18    12    13 1   
    19    12    28 1   
    20    13    14 ar  
    21    13    21 ar  
    22    14    15 ar  
    23    14    29 1   
    24    15    16 1   
    25    15    17 ar  
    26    17    18 1   
    27    17    19 ar  
    28    18    30 1   
    29    19    20 1   
    30    19    21 ar  
    31    21    22 1   
    32    22    31 1   
@<TRIPOS>SUBSTRUCTURE
     1 3BE         1 TEMP              0 ****  ****    0 ROOT
