@<TRIPOS>MOLECULE
3BE
   31    32     1     0     0
SMALL
No Charge or Current Charge


@<TRIPOS>ATOM
      1 CAK         -5.0230     0.3800     0.9240 ca         1 3BE      -0.029000
      2 CAP         -6.3260     0.9070     0.9090 ca         1 3BE      -0.029900
      3 BrAD        -7.6660     0.1660     2.0560 br         1 3BE      -0.079100
      4 CAI         -6.6490     1.9730     0.0570 ca         1 3BE      -0.059000
      5 CAH         -5.6640     2.5140    -0.7840 ca         1 3BE      -0.117000
      6 CAJ         -4.3580     1.9920    -0.7740 ca         1 3BE      -0.076000
      7 CAU         -4.0180     0.9140     0.0830 ca         1 3BE      -0.156600
      8 CAO         -2.6230     0.3180     0.1290 c          1 3BE       0.632700
      9 OAA         -2.3460    -0.6110     0.8810 o          1 3BE      -0.539100
     10 NAN         -1.6710     0.8840    -0.7210 ns         1 3BE      -0.266900
     11 NAM         -0.3530     0.4550    -0.8100 n2         1 3BE      -0.493300
     12 CAG          0.5250     0.9100     0.0340 ce         1 3BE       0.428800
     13 CAT          1.9470     0.4470     0.0260 ca         1 3BE      -0.298900
     14 CAL          2.8230     1.0270     0.9650 ca         1 3BE       0.036000
     15 CAQ          4.1720     0.6430     1.0160 ca         1 3BE      -0.179900
     16 BrAE         5.3230     1.4650     2.3150 br         1 3BE      -0.092100
     17 CAR          4.6630    -0.3270     0.1280 ca         1 3BE       0.258100
     18 OAB          5.9750    -0.6940     0.1850 oh         1 3BE      -0.498100
     19 CAV          3.8020    -0.9160    -0.8150 ca         1 3BE      -0.145900
     20 BrAF         4.4770    -2.2480    -2.0340 br         1 3BE      -0.043100
     21 CAS          2.4490    -0.5300    -0.8660 ca         1 3BE       0.279100
     22 OAC          1.6300    -1.1110    -1.7840 oh         1 3BE      -0.509100
     23 HAK         -4.7990    -0.4470     1.5950 ha         1 3BE       0.154000
     24 HAI         -7.6590     2.3790     0.0470 ha         1 3BE       0.135000
     25 HAH         -5.9120     3.3410    -1.4450 ha         1 3BE       0.124000
     26 HAJ         -3.6260     2.4410    -1.4410 ha         1 3BE       0.114000
     27 HNAN        -2.0040     1.6490    -1.3000 hn         1 3BE       0.315500
     28 HAG          0.2520     1.6540     0.7860 h4         1 3BE      -0.007200
     29 HAL          2.4590     1.7810     1.6610 ha         1 3BE       0.126000
     30 HOAB         6.3900    -0.1700     0.9020 ho         1 3BE       0.488000
     31 HOAC         0.7410    -0.6980    -1.6480 ho         1 3BE       0.531000
@<TRIPOS>BOND
     1     1     2 ar  
     2     1     7 ar  
     3     1    23 1   
     4     2     3 1   
     5     2     4 ar  
     6     4     5 ar  
     7     4    24 1   
     8     5     6 ar  
     9     5    25 1   
    10     6     7 ar  
    11     6    26 1   
    12     7     8 1   
    13     8     9 2   
    14     8    10 1   
    15    10    11 1   
    16    10    27 1   
    17    11    12 2   
    18    12    13 1   
    19    12    28 1   
    20    13    14 ar  
    21    13    21 ar  
    22    14    15 ar  
    23    14    29 1   
    24    15    16 1   
    25    15    17 ar  
    26    17    18 1   
    27    17    19 ar  
    28    18    30 1   
    29    19    20 1   
    30    19    21 ar  
    31    21    22 1   
    32    22    31 1   
@<TRIPOS>SUBSTRUCTURE
     1 3BE         1 TEMP              0 ****  ****    0 ROOT
