@<TRIPOS>MOLECULE
3BF
   75    77     1     0     0
SMALL
abcg2


@<TRIPOS>ATOM
      1 N2          -3.7850     4.3870     0.3800 ns         1 3BF      -0.467400
      2 C4          -4.8880     5.9720    -1.2350 cc         1 3BF      -0.205000
      3 N5          -5.4510     5.7390    -2.4650 na         1 3BF      -0.111500
      4 C6          -5.3200     4.4110    -2.7250 cc         1 3BF       0.340000
      5 C7          -5.7990     3.7420    -3.9480 c          1 3BF       0.547600
      6 C9          -5.8510     1.5200    -4.9860 cc         1 3BF      -0.012400
      7 C10         -6.5810     1.7590    -6.1460 cd         1 3BF      -0.153000
      8 C1          -3.4580     5.2320     1.3940 c          1 3BF       0.604100
      9 C8          -2.7620     4.5950     2.5700 c3         1 3BF      -0.171100
     10 C3          -4.4340     4.7430    -0.7980 cd         1 3BF       0.366900
     11 N6          -4.7040     3.7860    -1.7220 nd         1 3BF      -0.720000
     12 O7          -6.3980     4.3340    -4.8460 o          1 3BF      -0.606100
     13 N11         -6.6590     0.5980    -6.8490 na         1 3BF       0.075000
     14 C13         -5.4820     0.1640    -4.9950 cc         1 3BF      -0.155000
     15 C12         -5.9940    -0.3980    -6.1630 cd         1 3BF      -0.260600
     16 C14         -5.8650    -1.7520    -6.6760 c          1 3BF       0.659700
     17 O12         -6.1870    -2.0980    -7.8120 o          1 3BF      -0.590100
     18 N14         -5.3300    -2.6680    -5.7960 ns         1 3BF      -0.467400
     19 C15         -5.0350    -3.9750    -6.1050 cc         1 3BF       0.564300
     20 S16         -5.3000    -4.6790    -7.6770 ss         1 3BF       0.118600
     21 C17         -4.6410    -6.1830    -7.0910 cc         1 3BF      -0.168300
     22 C20         -4.5690    -7.3860    -7.9890 c3         1 3BF      -0.001400
     23 C21         -4.1680    -7.0250    -9.4220 c3         1 3BF      -0.089600
     24 C28         -5.9010    -8.1540    -7.9630 c3         1 3BF      -0.089600
     25 N19         -4.5160    -4.7800    -5.2300 nd         1 3BF      -0.741000
     26 C18         -4.2940    -6.0320    -5.7750 cd         1 3BF       0.206500
     27 C22         -3.6900    -7.0670    -4.9070 c          1 3BF       0.553600
     28 O22         -3.5330    -8.2460    -5.2820 o          1 3BF      -0.696100
     29 N22         -3.3150    -6.6440    -3.6910 ns         1 3BF      -0.486900
     30 C23         -2.7600    -7.5220    -2.6780 c3         1 3BF       0.086000
     31 C24         -1.2270    -7.5460    -2.6460 c3         1 3BF      -0.125400
     32 C25         -0.5480    -7.8250    -3.9770 c3         1 3BF       0.104600
     33 N26         -1.0060    -9.0870    -4.6580 nx         1 3BF      -0.698000
     34 C29         -0.3860    -9.2010    -6.0090 c3         1 3BF       0.085900
     35 C27         -0.7610   -10.3130    -3.8500 c3         1 3BF       0.085900
     36 H2          -3.5430     3.4110     0.4640 hn         1 3BF       0.330500
     37 H4          -4.8610     6.9480    -0.7930 h4         1 3BF       0.193000
     38 H8          -5.0180     2.0510    -3.1710 hn         1 3BF       0.351500
     39 H10         -7.0430     2.6590    -6.5040 h4         1 3BF       0.186000
     40 H111        -6.6880     0.2730    -8.9290 h1         1 3BF       0.067700
     41 H112        -8.1170    -0.3080    -8.0620 h1         1 3BF       0.067700
     42 H113        -7.8740     1.4360    -8.2950 h1         1 3BF       0.067700
     43 H102        -3.3920     4.7120     3.4540 hc         1 3BF       0.065700
     44 H101        -2.5520     3.5380     2.4200 hc         1 3BF       0.065700
     45 H103        -1.8280     5.1270     2.7550 hc         1 3BF       0.065700
     46 H53         -5.9620     7.7220    -2.7620 h1         1 3BF       0.068367
     47 H51         -5.5330     6.8440    -4.2480 h1         1 3BF       0.068367
     48 H52         -7.1010     6.5560    -3.4750 h1         1 3BF       0.068367
     49 H13         -4.8910    -0.3320    -4.2410 ha         1 3BF       0.131000
     50 H14         -5.1210    -2.3970    -4.8460 hn         1 3BF       0.347500
     51 H20         -3.8050    -8.0360    -7.5660 hc         1 3BF       0.063700
     52 H212        -3.2220    -6.4810    -9.4430 hc         1 3BF       0.046200
     53 H211        -4.0550    -7.9350   -10.0130 hc         1 3BF       0.046200
     54 H213        -4.9280    -6.4070    -9.9070 hc         1 3BF       0.046200
     55 H283        -6.1650    -8.4410    -6.9450 hc         1 3BF       0.046200
     56 H281        -6.7090    -7.5400    -8.3680 hc         1 3BF       0.046200
     57 H282        -5.8220    -9.0580    -8.5700 hc         1 3BF       0.046200
     58 H22         -3.4670    -5.6680    -3.4780 hn         1 3BF       0.364500
     59 H232        -3.1240    -7.1890    -1.7070 h1         1 3BF       0.074200
     60 H231        -3.1600    -8.5220    -2.8480 h1         1 3BF       0.074200
     61 H242        -0.9110    -8.2640    -1.8870 hc         1 3BF       0.083200
     62 H241        -0.8580    -6.5700    -2.3220 hc         1 3BF       0.083200
     63 H251         0.5300    -7.9100    -3.8500 hx         1 3BF       0.090700
     64 H252        -0.7490    -7.0210    -4.6840 hx         1 3BF       0.090700
     65 H291        -0.6370    -8.3120    -6.5820 hx         1 3BF       0.091700
     66 H293         0.6920    -9.2860    -5.8940 hx         1 3BF       0.091700
     67 H292        -0.7850   -10.0860    -6.4980 hx         1 3BF       0.091700
     68 H273        -1.3070   -10.2460    -2.9140 hx         1 3BF       0.091700
     69 H272        -1.1100   -11.1720    -4.4170 hx         1 3BF       0.091700
     70 H271         0.3060   -10.3940    -3.6590 hx         1 3BF       0.091700
     71 H26         -2.0330    -8.9720    -4.8170 hn         1 3BF       0.555000
     72 C5          -6.0520     6.7790    -3.2950 c3         1 3BF       0.062900
     73 O1          -3.7190     6.4320     1.3560 o          1 3BF      -0.592100
     74 N8          -5.5130     2.4170    -3.9730 ns         1 3BF      -0.364100
     75 C11         -7.3760     0.4870    -8.1150 c3         1 3BF       0.056900
@<TRIPOS>BOND
     1     1     8 1   
     2     1    10 1   
     3     1    36 1   
     4     2     3 1   
     5     2    10 2   
     6     2    37 1   
     7     3     4 1   
     8     3    72 1   
     9     4     5 1   
    10     4    11 2   
    11     5    12 2   
    12     5    74 1   
    13     6     7 2   
    14     6    14 1   
    15     6    74 1   
    16     7    13 1   
    17     7    39 1   
    18     8     9 1   
    19     8    73 2   
    20     9    43 1   
    21     9    44 1   
    22     9    45 1   
    23    10    11 1   
    24    13    15 1   
    25    13    75 1   
    26    14    15 2   
    27    14    49 1   
    28    15    16 1   
    29    16    17 2   
    30    16    18 1   
    31    18    19 1   
    32    18    50 1   
    33    19    20 1   
    34    19    25 2   
    35    20    21 1   
    36    21    22 1   
    37    21    26 2   
    38    22    23 1   
    39    22    24 1   
    40    22    51 1   
    41    23    52 1   
    42    23    53 1   
    43    23    54 1   
    44    24    55 1   
    45    24    56 1   
    46    24    57 1   
    47    25    26 1   
    48    26    27 1   
    49    27    28 2   
    50    27    29 1   
    51    29    30 1   
    52    29    58 1   
    53    30    31 1   
    54    30    59 1   
    55    30    60 1   
    56    31    32 1   
    57    31    61 1   
    58    31    62 1   
    59    32    33 1   
    60    32    63 1   
    61    32    64 1   
    62    33    34 1   
    63    33    35 1   
    64    33    71 1   
    65    34    65 1   
    66    34    66 1   
    67    34    67 1   
    68    35    68 1   
    69    35    69 1   
    70    35    70 1   
    71    38    74 1   
    72    40    75 1   
    73    41    75 1   
    74    42    75 1   
    75    46    72 1   
    76    47    72 1   
    77    48    72 1   
@<TRIPOS>SUBSTRUCTURE
     1 3BF         1 TEMP              0 ****  ****    0 ROOT
