@<TRIPOS>MOLECULE
3BF
   75    77     1     0     0
SMALL
No Charge or Current Charge


@<TRIPOS>ATOM
      1 N2          -3.6910     3.5730     0.3020 ns         1 3BF      -0.467400
      2 C4          -4.7260     5.3700    -0.9700 cc         1 3BF      -0.205000
      3 N5          -5.3260     5.4130    -2.2100 na         1 3BF      -0.111500
      4 C6          -5.2780     4.1340    -2.7520 cc         1 3BF       0.340000
      5 C7          -5.8120     3.6930    -4.0950 c          1 3BF       0.547600
      6 C9          -5.9350     1.5630    -5.4250 cc         1 3BF      -0.012400
      7 C10         -6.5750     1.9760    -6.5610 cd         1 3BF      -0.153000
      8 C1          -3.2960     4.2150     1.4530 c          1 3BF       0.604100
      9 C8          -2.5990     3.3120     2.4640 c3         1 3BF      -0.171100
     10 C3          -4.3330     4.0700    -0.7970 cd         1 3BF       0.366900
     11 N6          -4.6690     3.3140    -1.8840 nd         1 3BF      -0.720000
     12 O7          -6.3730     4.4260    -4.9060 o          1 3BF      -0.606100
     13 N11         -6.6970     0.8500    -7.3840 na         1 3BF       0.075000
     14 C13         -5.6610     0.1910    -5.5380 cc         1 3BF      -0.155000
     15 C12         -6.1280    -0.2700    -6.7490 cd         1 3BF      -0.260600
     16 C14         -6.0370    -1.6670    -7.2610 c          1 3BF       0.659700
     17 O12         -6.4710    -2.0150    -8.3480 o          1 3BF      -0.590100
     18 N14         -5.4200    -2.5210    -6.3930 ns         1 3BF      -0.467400
     19 C15         -5.1700    -3.8560    -6.5380 cc         1 3BF       0.564300
     20 S16         -5.5880    -4.8640    -7.8980 ss         1 3BF       0.118600
     21 C17         -4.8270    -6.2070    -7.0760 cc         1 3BF      -0.168300
     22 C20         -4.7750    -7.5670    -7.7530 c3         1 3BF      -0.001400
     23 C21         -4.5770    -7.4780    -9.2850 c3         1 3BF      -0.089600
     24 C28         -6.0170    -8.4100    -7.3970 c3         1 3BF      -0.089600
     25 N19         -4.5540    -4.4540    -5.5400 nd         1 3BF      -0.741000
     26 C18         -4.3580    -5.8180    -5.8190 cd         1 3BF       0.206500
     27 C22         -3.7000    -6.7780    -4.8430 c          1 3BF       0.553600
     28 O22         -3.5150    -7.9820    -4.9900 o          1 3BF      -0.696100
     29 N22         -3.2900    -6.1380    -3.6950 ns         1 3BF      -0.486900
     30 C23         -2.6350    -6.7790    -2.5500 c3         1 3BF       0.086000
     31 C24         -1.0940    -6.7070    -2.6170 c3         1 3BF      -0.125400
     32 C25         -0.4620    -7.2000    -3.9360 c3         1 3BF       0.104600
     33 N26         -0.9280    -8.5830    -4.3860 nx         1 3BF      -0.698000
     34 C29         -0.3320    -8.9630    -5.7440 c3         1 3BF       0.085900
     35 C27         -0.6960    -9.6810    -3.3410 c3         1 3BF       0.085900
     36 H2          -3.4640     2.5890     0.2830 hn         1 3BF       0.330500
     37 H4          -4.6300     6.2370    -0.3330 h4         1 3BF       0.193000
     38 H8          -5.1210     1.8900    -3.5490 hn         1 3BF       0.351500
     39 H10         -6.9460     2.9510    -6.8520 h4         1 3BF       0.186000
     40 H111        -6.6010     0.5460    -9.4680 h1         1 3BF       0.067700
     41 H112        -8.1820     0.1680    -8.7160 h1         1 3BF       0.067700
     42 H113        -7.6850     1.8690    -8.9490 h1         1 3BF       0.067700
     43 H102        -3.2530     2.4640     2.6970 hc         1 3BF       0.065700
     44 H101        -1.7460     2.8240     1.9800 hc         1 3BF       0.065700
     45 H103        -2.2960     3.8500     3.3700 hc         1 3BF       0.065700
     46 H53         -5.7980     7.4750    -2.1640 h1         1 3BF       0.068367
     47 H51         -5.3970     6.8250    -3.7800 h1         1 3BF       0.068367
     48 H52         -6.9770     6.4470    -3.0270 h1         1 3BF       0.068367
     49 H13         -5.1570    -0.3820    -4.7650 ha         1 3BF       0.131000
     50 H14         -5.1080    -2.1070    -5.5320 hn         1 3BF       0.347500
     51 H20         -3.8960    -8.1120    -7.3930 hc         1 3BF       0.063700
     52 H212        -3.7040    -6.8600    -9.5260 hc         1 3BF       0.046200
     53 H211        -4.4100    -8.4760    -9.7080 hc         1 3BF       0.046200
     54 H213        -5.4560    -7.0480    -9.7800 hc         1 3BF       0.046200
     55 H283        -6.1050    -8.5270    -6.3100 hc         1 3BF       0.046200
     56 H281        -6.9320    -7.9300    -7.7650 hc         1 3BF       0.046200
     57 H282        -5.9500    -9.4100    -7.8410 hc         1 3BF       0.046200
     58 H22         -3.4960    -5.1430    -3.6650 hn         1 3BF       0.364500
     59 H232        -2.9800    -6.2890    -1.6290 h1         1 3BF       0.074200
     60 H231        -2.9510    -7.8300    -2.4940 h1         1 3BF       0.074200
     61 H242        -0.6770    -7.2790    -1.7800 hc         1 3BF       0.083200
     62 H241        -0.7820    -5.6670    -2.4590 hc         1 3BF       0.083200
     63 H251         0.6260    -7.2180    -3.8270 hx         1 3BF       0.090700
     64 H252        -0.7080    -6.4870    -4.7280 hx         1 3BF       0.090700
     65 H291        -0.5760    -8.1940    -6.4810 hx         1 3BF       0.091700
     66 H293         0.7540    -9.0470    -5.6540 hx         1 3BF       0.091700
     67 H292        -0.7430    -9.9210    -6.0710 hx         1 3BF       0.091700
     68 H273        -1.2070    -9.4230    -2.4110 hx         1 3BF       0.091700
     69 H272        -1.0860   -10.6310    -3.7140 hx         1 3BF       0.091700
     70 H271         0.3750    -9.7800    -3.1500 hx         1 3BF       0.091700
     71 H26         -1.9750    -8.5060    -4.5420 hn         1 3BF       0.555000
     72 C5          -5.9100     6.6130    -2.8330 c3         1 3BF       0.062900
     73 O1          -3.4770     5.4030     1.6690 o          1 3BF      -0.592100
     74 N8          -5.5980     2.3400    -4.3250 ns         1 3BF      -0.364100
     75 C11         -7.3310     0.8590    -8.7110 c3         1 3BF       0.056900
@<TRIPOS>BOND
     1     1     8 1   
     2     1    10 1   
     3     1    36 1   
     4     2     3 1   
     5     2    10 2   
     6     2    37 1   
     7     3     4 1   
     8     3    72 1   
     9     4     5 1   
    10     4    11 2   
    11     5    12 2   
    12     5    74 1   
    13     6     7 2   
    14     6    14 1   
    15     6    74 1   
    16     7    13 1   
    17     7    39 1   
    18     8     9 1   
    19     8    73 2   
    20     9    43 1   
    21     9    44 1   
    22     9    45 1   
    23    10    11 1   
    24    13    15 1   
    25    13    75 1   
    26    14    15 2   
    27    14    49 1   
    28    15    16 1   
    29    16    17 2   
    30    16    18 1   
    31    18    19 1   
    32    18    50 1   
    33    19    20 1   
    34    19    25 2   
    35    20    21 1   
    36    21    22 1   
    37    21    26 2   
    38    22    23 1   
    39    22    24 1   
    40    22    51 1   
    41    23    52 1   
    42    23    53 1   
    43    23    54 1   
    44    24    55 1   
    45    24    56 1   
    46    24    57 1   
    47    25    26 1   
    48    26    27 1   
    49    27    28 2   
    50    27    29 1   
    51    29    30 1   
    52    29    58 1   
    53    30    31 1   
    54    30    59 1   
    55    30    60 1   
    56    31    32 1   
    57    31    61 1   
    58    31    62 1   
    59    32    33 1   
    60    32    63 1   
    61    32    64 1   
    62    33    34 1   
    63    33    35 1   
    64    33    71 1   
    65    34    65 1   
    66    34    66 1   
    67    34    67 1   
    68    35    68 1   
    69    35    69 1   
    70    35    70 1   
    71    38    74 1   
    72    40    75 1   
    73    41    75 1   
    74    42    75 1   
    75    46    72 1   
    76    47    72 1   
    77    48    72 1   
@<TRIPOS>SUBSTRUCTURE
     1 3BF         1 TEMP              0 ****  ****    0 ROOT
