@<TRIPOS>MOLECULE
3BH
   34    36     1     0     0
SMALL
abcg2


@<TRIPOS>ATOM
      1 O15         -0.9940     2.1350    -1.4760 oh         1 3BH      -0.668000
      2 C8          -1.6250     1.0170    -0.9410 c5         1 3BH       0.132300
      3 C14         -3.0490     1.2190    -0.4150 c5         1 3BH       0.098300
      4 O19         -3.0980     2.4640     0.2290 oh         1 3BH      -0.683000
      5 C13         -3.1620     0.0410     0.5560 c5         1 3BH       0.132300
      6 C18         -3.7460    -1.1850    -0.1250 c3         1 3BH       0.140600
      7 O20         -3.5080    -2.3100     0.6880 oh         1 3BH      -0.706000
      8 O7          -1.8340    -0.2100     1.0310 os         1 3BH      -0.439000
      9 C3          -0.9110     0.5820     0.3370 c5         1 3BH       0.316300
     10 N1           0.3090    -0.1530     0.1250 na         1 3BH      -0.308300
     11 C2           1.5680     0.3610     0.3210 ca         1 3BH       0.141500
     12 N6           1.9000     1.5340     0.8440 nb         1 3BH      -0.206000
     13 C12          3.2130     1.7010     0.8920 ca         1 3BH       0.168900
     14 N16          4.1590     0.8610     0.4900 nb         1 3BH      -0.289000
     15 C11          3.8020    -0.3180    -0.0360 ca         1 3BH       0.424900
     16 N17          4.7590    -1.1550    -0.4730 nv         1 3BH      -1.057900
     17 C5           2.4370    -0.6130    -0.1360 ca         1 3BH      -0.066600
     18 N9           1.7500    -1.7140    -0.5860 nc         1 3BH      -0.625100
     19 C4           0.4910    -1.4090    -0.4190 cd         1 3BH       0.618700
     20 N10         -0.5560    -2.1960    -0.7840 nv         1 3BH      -1.005200
     21 HO15        -1.3270     2.2810    -2.3670 ho         1 3BH       0.510000
     22 H8          -1.6360     0.1780    -1.6480 h1         1 3BH       0.059700
     23 H14         -3.7980     1.1470    -1.2150 h1         1 3BH       0.049700
     24 HO19        -3.9580     2.5510     0.6540 ho         1 3BH       0.505000
     25 H13         -3.7820     0.2990     1.4210 h1         1 3BH       0.081700
     26 H18         -4.8180    -1.0000    -0.2700 h1         1 3BH       0.027700
     27 H18A        -3.3110    -1.3180    -1.1250 h1         1 3BH       0.027700
     28 HO20        -3.9250    -3.0720     0.2740 ho         1 3BH       0.506000
     29 H3          -0.6220     1.4660     0.9170 h2         1 3BH       0.126700
     30 H12          3.5620     2.6380     1.3120 h5         1 3BH       0.046100
     31 HN17         5.7150    -0.9720    -0.2220 hn         1 3BH       0.495000
     32 HN1A         4.5210    -2.1060    -0.6950 hn         1 3BH       0.495000
     33 HN10        -1.3360    -2.2450    -0.1420 hn         1 3BH       0.475500
     34 HN1B        -0.2650    -3.1110    -1.0930 hn         1 3BH       0.475500
@<TRIPOS>BOND
     1     1     2 1   
     2     1    21 1   
     3     2     3 1   
     4     2     9 1   
     5     2    22 1   
     6     3     4 1   
     7     3     5 1   
     8     3    23 1   
     9     4    24 1   
    10     5     6 1   
    11     5     8 1   
    12     5    25 1   
    13     6     7 1   
    14     6    26 1   
    15     6    27 1   
    16     7    28 1   
    17     8     9 1   
    18     9    10 1   
    19     9    29 1   
    20    10    11 1   
    21    10    19 1   
    22    11    12 ar  
    23    11    17 ar  
    24    12    13 ar  
    25    13    14 ar  
    26    13    30 1   
    27    14    15 ar  
    28    15    16 1   
    29    15    17 ar  
    30    16    31 1   
    31    16    32 1   
    32    17    18 1   
    33    18    19 2   
    34    19    20 1   
    35    20    33 1   
    36    20    34 1   
@<TRIPOS>SUBSTRUCTURE
     1 3BH         1 TEMP              0 ****  ****    0 ROOT
