@<TRIPOS>MOLECULE
3BH
   34    36     1     0     0
SMALL
No Charge or Current Charge


@<TRIPOS>ATOM
      1 O15         -1.1610     2.3590    -1.4550 oh         1 3BH      -0.668000
      2 C8          -1.6580     1.1070    -0.9620 c5         1 3BH       0.132300
      3 C14         -3.1040     1.2760    -0.4170 c5         1 3BH       0.098300
      4 O19         -3.2080     2.4640     0.3920 oh         1 3BH      -0.683000
      5 C13         -3.2340    -0.0480     0.4090 c5         1 3BH       0.132300
      6 C18         -3.6060    -1.2860    -0.4640 c3         1 3BH       0.140600
      7 O20         -3.6900    -2.4770     0.3370 oh         1 3BH      -0.706000
      8 O7          -1.9230    -0.2410     1.0130 os         1 3BH      -0.439000
      9 C3          -0.9500     0.5950     0.3370 c5         1 3BH       0.316300
     10 N1           0.3120    -0.1230     0.1550 na         1 3BH      -0.308300
     11 C2           1.5840     0.3920     0.1750 ca         1 3BH       0.141500
     12 N6           2.0200     1.6480     0.4030 nb         1 3BH      -0.206000
     13 C12          3.3610     1.8280     0.3570 ca         1 3BH       0.168900
     14 N16          4.2970     0.8820     0.1080 nb         1 3BH      -0.289000
     15 C11          3.8360    -0.3590    -0.1170 ca         1 3BH       0.424900
     16 N17          4.7790    -1.3110    -0.3630 nv         1 3BH      -1.057900
     17 C5           2.4530    -0.6450    -0.0870 ca         1 3BH      -0.066600
     18 N9           1.7940    -1.8580    -0.2810 nc         1 3BH      -0.625100
     19 C4           0.5350    -1.4710    -0.1310 cd         1 3BH       0.618700
     20 N10         -0.4490    -2.3680    -0.2200 nv         1 3BH      -1.005200
     21 HO15        -1.6740     3.0340    -0.9460 ho         1 3BH       0.510000
     22 H8          -1.6120     0.3430    -1.7500 h1         1 3BH       0.059700
     23 H14         -3.8370     1.3090    -1.2360 h1         1 3BH       0.049700
     24 HO19        -4.1410     2.5310     0.7090 ho         1 3BH       0.505000
     25 H13         -3.9860     0.0470     1.2030 h1         1 3BH       0.081700
     26 H18         -4.5750    -1.0880    -0.9410 h1         1 3BH       0.027700
     27 H18A        -2.8690    -1.4160    -1.2670 h1         1 3BH       0.027700
     28 HO20        -4.0870    -3.1820    -0.2280 ho         1 3BH       0.506000
     29 H3          -0.7230     1.4550     0.9810 h2         1 3BH       0.126700
     30 H12          3.7230     2.8380     0.5400 h5         1 3BH       0.046100
     31 HN17         5.7400    -1.1190    -0.0930 hn         1 3BH       0.495000
     32 HN1A         4.4760    -2.2820    -0.3300 hn         1 3BH       0.495000
     33 HN10        -1.3210    -2.1060     0.2340 hn         1 3BH       0.475500
     34 HN1B        -0.1740    -3.3380    -0.1410 hn         1 3BH       0.475500
@<TRIPOS>BOND
     1     1     2 1   
     2     1    21 1   
     3     2     3 1   
     4     2     9 1   
     5     2    22 1   
     6     3     4 1   
     7     3     5 1   
     8     3    23 1   
     9     4    24 1   
    10     5     6 1   
    11     5     8 1   
    12     5    25 1   
    13     6     7 1   
    14     6    26 1   
    15     6    27 1   
    16     7    28 1   
    17     8     9 1   
    18     9    10 1   
    19     9    29 1   
    20    10    11 1   
    21    10    19 1   
    22    11    12 ar  
    23    11    17 ar  
    24    12    13 ar  
    25    13    14 ar  
    26    13    30 1   
    27    14    15 ar  
    28    15    16 1   
    29    15    17 ar  
    30    16    31 1   
    31    16    32 1   
    32    17    18 1   
    33    18    19 2   
    34    19    20 1   
    35    20    33 1   
    36    20    34 1   
@<TRIPOS>SUBSTRUCTURE
     1 3BH         1 TEMP              0 ****  ****    0 ROOT
