@<TRIPOS>MOLECULE
3BJ
   52    56     1     0     0
SMALL
No Charge or Current Charge


@<TRIPOS>ATOM
      1 C1           4.0610    -0.5840    -0.0230 ca         1 3BJ      -0.077200
      2 C3           5.2340     1.4150     0.6170 ca         1 3BJ      -0.051000
      3 C4           5.8460     1.4340    -0.6570 ca         1 3BJ      -0.132000
      4 C5           5.5490     0.4300    -1.6110 ca         1 3BJ      -0.093000
      5 C6           4.6410    -0.6020    -1.2960 ca         1 3BJ      -0.115000
      6 N7           3.1620    -1.4310     0.5470 na         1 3BJ      -0.303600
      7 C8           2.8910    -0.9450     1.8260 cc         1 3BJ       0.407800
      8 C12         -0.1560    -2.0550     1.3350 ca         1 3BJ       0.446900
      9 C14         -2.1160    -2.5360     0.3230 ca         1 3BJ       0.472900
     10 C16         -1.1420    -0.5190     0.0290 ca         1 3BJ       0.461900
     11 C19         -3.3250    -4.7160     0.8540 c6         1 3BJ       0.188800
     12 C10          1.9170    -1.6020     2.8010 c3         1 3BJ       0.227500
     13 C20         -4.2030    -5.7830     0.1370 c6         1 3BJ       0.132100
     14 C22         -5.2660    -4.1360    -1.2430 c6         1 3BJ       0.132100
     15 C23         -4.4480    -2.9740    -0.6050 c6         1 3BJ       0.188800
     16 C25         -0.2830     1.7860    -0.6990 ca         1 3BJ       0.330000
     17 C26          1.1000     1.5340    -0.7920 ca         1 3BJ      -0.122000
     18 C27          2.0110     2.5900    -0.9750 ca         1 3BJ      -0.065000
     19 C28          1.5450     3.9100    -1.0710 ca         1 3BJ       0.090000
     20 C30         -0.7430     3.1210    -0.8200 ca         1 3BJ       0.059000
     21 C29          0.1690     4.1760    -0.9980 ca         1 3BJ      -0.070000
     22 Cl1          2.6870     5.2280    -1.2990 cl         1 3BJ      -0.198000
     23 N24         -1.2030     0.7370    -0.5380 nu         1 3BJ      -0.922900
     24 N17         -0.1100    -0.8200     0.8240 nb         1 3BJ      -0.347000
     25 N13         -1.1170    -2.9560     1.1210 nb         1 3BJ      -0.377000
     26 N18         -3.1760    -3.4410     0.0590 nh         1 3BJ      -0.771300
     27 O21         -5.4560    -5.2150    -0.3020 os         1 3BJ      -0.446000
     28 N15         -2.1770    -1.3170    -0.2460 nb         1 3BJ      -0.374000
     29 N11          0.8660    -2.4630     2.1680 nu         1 3BJ      -0.941100
     30 C2           4.3320     0.3810     0.9050 ca         1 3BJ       0.069400
     31 N9           3.6110     0.1730     2.0770 nd         1 3BJ      -0.583100
     32 H1           5.4520     2.1840     1.3540 ha         1 3BJ       0.127000
     33 H2           6.5480     2.2270    -0.9070 ha         1 3BJ       0.115000
     34 H3           6.0240     0.4540    -2.5900 ha         1 3BJ       0.112000
     35 H4           4.4010    -1.3810    -2.0170 ha         1 3BJ       0.117000
     36 H5           2.7340    -2.2480     0.1340 hn         1 3BJ       0.360000
     37 H6          -3.7730    -4.4940     1.8340 h1         1 3BJ       0.073450
     38 H7          -2.3470    -5.1800     1.0460 h1         1 3BJ       0.073450
     39 H8           2.5130    -2.2010     3.5020 h1         1 3BJ       0.078200
     40 H9           1.4390    -0.8080     3.3900 h1         1 3BJ       0.078200
     41 H10         -3.6640    -6.1840    -0.7330 h1         1 3BJ       0.054950
     42 H11         -4.4060    -6.6180     0.8230 h1         1 3BJ       0.054950
     43 H12         -6.2470    -3.7630    -1.5690 h1         1 3BJ       0.054950
     44 H13         -4.7380    -4.5190    -2.1290 h1         1 3BJ       0.054950
     45 H14         -4.2340    -2.2530    -1.4070 h1         1 3BJ       0.073450
     46 H15         -5.0850    -2.4590     0.1290 h1         1 3BJ       0.073450
     47 H16          1.4740     0.5180    -0.7450 ha         1 3BJ       0.169000
     48 H17          3.0750     2.3850    -1.0510 ha         1 3BJ       0.143000
     49 H18         -0.1900     5.1980    -1.0830 ha         1 3BJ       0.141000
     50 H19         -2.1500     0.9790    -0.8280 hn         1 3BJ       0.522000
     51 H20          0.7430    -3.4040     2.5460 hn         1 3BJ       0.513000
     52 Cl2         -2.4700     3.4970    -0.7470 cl         1 3BJ      -0.206000
@<TRIPOS>BOND
     1     1     5 ar  
     2     1     6 1   
     3     1    30 ar  
     4     2     3 ar  
     5     2    30 ar  
     6     2    32 1   
     7     3     4 ar  
     8     3    33 1   
     9     4     5 ar  
    10     4    34 1   
    11     5    35 1   
    12     6     7 1   
    13     6    36 1   
    14     7    12 1   
    15     7    31 2   
    16     8    24 ar  
    17     8    25 ar  
    18     8    29 1   
    19     9    25 ar  
    20     9    26 1   
    21     9    28 ar  
    22    10    23 1   
    23    10    24 ar  
    24    10    28 ar  
    25    11    13 1   
    26    11    26 1   
    27    11    37 1   
    28    11    38 1   
    29    12    29 1   
    30    12    39 1   
    31    12    40 1   
    32    13    27 1   
    33    13    41 1   
    34    13    42 1   
    35    14    15 1   
    36    14    27 1   
    37    14    43 1   
    38    14    44 1   
    39    15    26 1   
    40    15    45 1   
    41    15    46 1   
    42    16    17 ar  
    43    16    20 ar  
    44    16    23 1   
    45    17    18 ar  
    46    17    47 1   
    47    18    19 ar  
    48    18    48 1   
    49    19    21 ar  
    50    19    22 1   
    51    20    21 ar  
    52    20    52 1   
    53    21    49 1   
    54    23    50 1   
    55    29    51 1   
    56    30    31 1   
@<TRIPOS>SUBSTRUCTURE
     1 3BJ         1 TEMP              0 ****  ****    0 ROOT
