@<TRIPOS>MOLECULE
3BJ
   52    56     1     0     0
SMALL
bcc


@<TRIPOS>ATOM
      1 C1           3.8850    -1.1880    -0.2790 ca         1 3BJ      -0.077200
      2 C3           4.9950     0.9640    -0.2890 ca         1 3BJ      -0.069000
      3 C4           5.5800     0.5950    -1.4880 ca         1 3BJ      -0.150000
      4 C5           5.3200    -0.6520    -2.0750 ca         1 3BJ      -0.111000
      5 C6           4.4670    -1.5680    -1.4820 ca         1 3BJ      -0.133000
      6 N7           3.0100    -1.8130     0.5700 na         1 3BJ      -0.253300
      7 C8           2.7690    -0.9650     1.5990 cc         1 3BJ       0.407800
      8 C12         -0.2260    -1.8490     1.5940 ca         1 3BJ       0.972900
      9 C14         -2.2000    -2.3220     0.6360 ca         1 3BJ       0.998900
     10 C16         -1.2360    -0.3160     0.3300 ca         1 3BJ       0.987900
     11 C19         -3.2430    -4.5310     0.9200 c6         1 3BJ       0.188800
     12 C10          1.8760    -1.3310     2.7410 c3         1 3BJ       0.227500
     13 C20         -3.3970    -5.5000    -0.2410 c6         1 3BJ       0.108900
     14 C22         -4.4680    -3.8830    -1.5360 c6         1 3BJ       0.108900
     15 C23         -4.3560    -2.8530    -0.4240 c6         1 3BJ       0.188800
     16 C25         -0.4550     1.9790    -0.2980 ca         1 3BJ       0.191600
     17 C26          0.7990     2.0000     0.3180 ca         1 3BJ      -0.140000
     18 C27          1.6300     3.1030     0.2290 ca         1 3BJ      -0.083000
     19 C28          1.2250     4.2200    -0.4790 ca         1 3BJ      -0.001600
     20 C30         -0.8320     3.1320    -1.0060 ca         1 3BJ      -0.032600
     21 C29         -0.0110     4.2410    -1.1020 ca         1 3BJ      -0.088000
     22 CL1          2.2610     5.6020    -0.5970 cl         1 3BJ      -0.106400
     23 N24         -1.3280     0.9080    -0.2650 nu         1 3BJ      -0.729300
     24 N17         -0.1870    -0.6160     1.0810 nb         1 3BJ      -0.873000
     25 N13         -1.1930    -2.7390     1.4090 nb         1 3BJ      -0.903000
     26 N18         -3.2170    -3.1720     0.4150 nh         1 3BJ      -0.771300
     27 O21         -4.5300    -5.1960    -1.0240 os         1 3BJ      -0.399600
     28 N15         -2.2670    -1.1110     0.0740 nb         1 3BJ      -0.900000
     29 N11          0.8120    -2.2220     2.3630 nu         1 3BJ      -0.885900
     30 C2           4.1350     0.0560     0.3260 ca         1 3BJ       0.069400
     31 N9           3.4210     0.1600     1.4970 nd         1 3BJ      -0.583100
     32 H1           5.1990     1.9280     0.1600 ha         1 3BJ       0.145000
     33 H2           6.2540     1.2800    -1.9860 ha         1 3BJ       0.133000
     34 H3           5.7960    -0.9040    -3.0130 ha         1 3BJ       0.130000
     35 H4           4.2660    -2.5300    -1.9350 ha         1 3BJ       0.135000
     36 H5           2.6050    -2.7290     0.4530 hn         1 3BJ       0.309700
     37 H6          -4.0840    -4.6400     1.6120 h1         1 3BJ       0.073450
     38 H7          -2.3280    -4.7440     1.4660 h1         1 3BJ       0.073450
     39 H8           2.4640    -1.8410     3.5060 h1         1 3BJ       0.078200
     40 H9           1.5010    -0.4090     3.1890 h1         1 3BJ       0.078200
     41 H10         -2.4850    -5.4770    -0.8550 h1         1 3BJ       0.054950
     42 H11         -3.5240    -6.5150     0.1370 h1         1 3BJ       0.054950
     43 H12         -5.3800    -3.7130    -2.1110 h1         1 3BJ       0.054950
     44 H13         -3.6110    -3.7740    -2.2160 h1         1 3BJ       0.054950
     45 H14         -4.2430    -1.8580    -0.8460 h1         1 3BJ       0.073450
     46 H15         -5.2640    -2.8600     0.1870 h1         1 3BJ       0.073450
     47 H16          1.1360     1.1410     0.8720 ha         1 3BJ       0.187000
     48 H17          2.5930     3.0740     0.7210 ha         1 3BJ       0.161000
     49 H18         -0.3380     5.1070    -1.6590 ha         1 3BJ       0.159000
     50 H19         -2.1830     1.0120    -0.7930 hn         1 3BJ       0.466800
     51 H20          0.7590    -3.1270     2.7990 hn         1 3BJ       0.457800
     52 CL2         -2.3720     3.1950    -1.8020 cl         1 3BJ      -0.114400
@<TRIPOS>BOND
     1     1     5 ar  
     2     1     6 1   
     3     1    30 ar  
     4     2     3 ar  
     5     2    30 ar  
     6     2    32 1   
     7     3     4 ar  
     8     3    33 1   
     9     4     5 ar  
    10     4    34 1   
    11     5    35 1   
    12     6     7 1   
    13     6    36 1   
    14     7    12 1   
    15     7    31 2   
    16     8    24 ar  
    17     8    25 ar  
    18     8    29 1   
    19     9    25 ar  
    20     9    26 1   
    21     9    28 ar  
    22    10    23 1   
    23    10    24 ar  
    24    10    28 ar  
    25    11    13 1   
    26    11    26 1   
    27    11    37 1   
    28    11    38 1   
    29    12    29 1   
    30    12    39 1   
    31    12    40 1   
    32    13    27 1   
    33    13    41 1   
    34    13    42 1   
    35    14    15 1   
    36    14    27 1   
    37    14    43 1   
    38    14    44 1   
    39    15    26 1   
    40    15    45 1   
    41    15    46 1   
    42    16    17 ar  
    43    16    20 ar  
    44    16    23 1   
    45    17    18 ar  
    46    17    47 1   
    47    18    19 ar  
    48    18    48 1   
    49    19    21 ar  
    50    19    22 1   
    51    20    21 ar  
    52    20    52 1   
    53    21    49 1   
    54    23    50 1   
    55    29    51 1   
    56    30    31 1   
@<TRIPOS>SUBSTRUCTURE
     1 3BJ         1 TEMP              0 ****  ****    0 ROOT
