@<TRIPOS>MOLECULE
3BK
   47    50     1     0     0
SMALL
No Charge or Current Charge


@<TRIPOS>ATOM
      1 C18         -3.6310    -0.8380    -0.8120 ca         1 3BK      -0.076000
      2 C19         -4.8600    -0.1640    -0.7010 ca         1 3BK       0.114000
      3 Cl28        -5.6780     0.3730    -2.1700 cl         1 3BK      -0.167000
      4 C20         -5.4190     0.0740     0.5720 ca         1 3BK       0.122000
      5 Cl29        -6.9590     0.9170     0.7480 cl         1 3BK      -0.170000
      6 C21         -4.7440    -0.3630     1.7240 ca         1 3BK      -0.099000
      7 C22         -3.5150    -1.0360     1.6110 ca         1 3BK      -0.095000
      8 C17         -2.9530    -1.2790     0.3420 ca         1 3BK      -0.097300
      9 C16         -1.6200    -2.0030     0.2160 c3         1 3BK       0.258100
     10 N15         -0.5350    -1.0240     0.1340 nu         1 3BK      -0.862400
     11 C6           0.7920    -1.3160     0.0460 cc         1 3BK       0.632700
     12 N7           1.2460    -2.5690    -0.0050 nd         1 3BK      -0.617100
     13 C8           2.6340    -2.3870    -0.0380 ca         1 3BK      -0.068600
     14 C4           3.6640    -3.3510    -0.0890 ca         1 3BK       0.429900
     15 N27          3.4160    -4.6900    -0.1200 nv         1 3BK      -1.054900
     16 N1           4.9550    -2.9860    -0.1140 nb         1 3BK      -0.287000
     17 C2           5.1990    -1.6540    -0.0800 ca         1 3BK       0.169900
     18 N3           4.2770    -0.6620    -0.0270 nb         1 3BK      -0.233000
     19 C9           2.9880    -1.0580    -0.0110 ca         1 3BK       0.140500
     20 N5           1.8070    -0.3640     0.0320 na         1 3BK      -0.319300
     21 C10          1.6260     1.0880     0.0370 c5         1 3BK       0.316300
     22 O11          2.4880     1.6840    -0.9620 os         1 3BK      -0.424000
     23 C12          3.0380     2.9020    -0.4150 c5         1 3BK       0.174300
     24 C23          4.3020     3.3370    -1.2080 c3         1 3BK       0.162600
     25 O26          3.9610     3.8320    -2.5190 oh         1 3BK      -0.707000
     26 C13          3.2940     2.5180     1.0740 c5         1 3BK       0.090300
     27 O25          3.4920     3.6500     1.9500 oh         1 3BK      -0.713000
     28 C14          1.9500     1.8060     1.4000 c5         1 3BK       0.100300
     29 O24          0.9880     2.8070     1.7620 oh         1 3BK      -0.718000
     30 H18         -3.2050    -1.0150    -1.7970 ha         1 3BK       0.147000
     31 H21         -5.1740    -0.1780     2.7060 ha         1 3BK       0.133000
     32 H22         -2.9990    -1.3680     2.5100 ha         1 3BK       0.121000
     33 H16         -1.4750    -2.6630     1.0830 h1         1 3BK       0.063700
     34 H16A        -1.6300    -2.6360    -0.6830 h1         1 3BK       0.063700
     35 HN15        -0.7550    -0.0620     0.3700 hn         1 3BK       0.478000
     36 HN27         2.4580    -4.9730    -0.3120 hn         1 3BK       0.497500
     37 HN2A         4.1520    -5.3110    -0.4470 hn         1 3BK       0.497500
     38 H2           6.2430    -1.3470    -0.0960 h5         1 3BK       0.043100
     39 H10          0.5820     1.2810    -0.2370 h2         1 3BK       0.094700
     40 H12          2.2830     3.6980    -0.4870 h1         1 3BK       0.079700
     41 H23          4.8180     4.1210    -0.6380 h1         1 3BK       0.035200
     42 H23A         4.9850     2.4790    -1.2840 h1         1 3BK       0.035200
     43 HO26         4.8080     4.0270    -2.9840 ho         1 3BK       0.504000
     44 H13          4.1320     1.8080     1.1510 h1         1 3BK       0.088700
     45 HO25         4.4620     3.8310     1.9990 ho         1 3BK       0.515000
     46 H14          2.0750     1.0790     2.2160 h1         1 3BK       0.069700
     47 HO24         1.5680     3.5450     2.0890 ho         1 3BK       0.530000
@<TRIPOS>BOND
     1     1     2 ar  
     2     1     8 ar  
     3     1    30 1   
     4     2     3 1   
     5     2     4 ar  
     6     4     5 1   
     7     4     6 ar  
     8     6     7 ar  
     9     6    31 1   
    10     7     8 ar  
    11     7    32 1   
    12     8     9 1   
    13     9    10 1   
    14     9    33 1   
    15     9    34 1   
    16    10    11 1   
    17    10    35 1   
    18    11    12 2   
    19    11    20 1   
    20    12    13 1   
    21    13    14 ar  
    22    13    19 ar  
    23    14    15 1   
    24    14    16 ar  
    25    15    36 1   
    26    15    37 1   
    27    16    17 ar  
    28    17    18 ar  
    29    17    38 1   
    30    18    19 ar  
    31    19    20 1   
    32    20    21 1   
    33    21    22 1   
    34    21    28 1   
    35    21    39 1   
    36    22    23 1   
    37    23    24 1   
    38    23    26 1   
    39    23    40 1   
    40    24    25 1   
    41    24    41 1   
    42    24    42 1   
    43    25    43 1   
    44    26    27 1   
    45    26    28 1   
    46    26    44 1   
    47    27    45 1   
    48    28    29 1   
    49    28    46 1   
    50    29    47 1   
@<TRIPOS>SUBSTRUCTURE
     1 3BK         1 TEMP              0 ****  ****    0 ROOT
