@<TRIPOS>MOLECULE
3BK
   47    50     1     0     0
SMALL
abcg2


@<TRIPOS>ATOM
      1 C18         -3.2020    -0.2660    -0.4930 ca         1 3BK      -0.076000
      2 C19         -4.4810     0.2540    -0.6040 ca         1 3BK       0.114000
      3 CL28        -4.7980     1.4720    -1.7810 cl         1 3BK      -0.167000
      4 C20         -5.4980    -0.2060     0.2270 ca         1 3BK       0.122000
      5 CL29        -7.0930     0.4320     0.1030 cl         1 3BK      -0.170000
      6 C21         -5.2230    -1.1850     1.1670 ca         1 3BK      -0.099000
      7 C22         -3.9410    -1.6980     1.2780 ca         1 3BK      -0.095000
      8 C17         -2.9200    -1.2490     0.4490 ca         1 3BK      -0.097300
      9 C16         -1.5390    -1.8360     0.5480 c3         1 3BK       0.258100
     10 N15         -0.5410    -0.7860     0.5460 nu         1 3BK      -0.862400
     11 C6           0.7630    -1.1410     0.3850 cc         1 3BK       0.632700
     12 N7           1.1890    -2.3570     0.1910 nd         1 3BK      -0.617100
     13 C8           2.5460    -2.2200     0.0280 ca         1 3BK      -0.068600
     14 C4           3.5660    -3.1510    -0.2050 ca         1 3BK       0.429900
     15 N27          3.3330    -4.4700    -0.3080 nv         1 3BK      -1.054900
     16 N1           4.8240    -2.7030    -0.2960 nb         1 3BK      -0.287000
     17 C2           5.0540    -1.4030    -0.1610 ca         1 3BK       0.169900
     18 N3           4.1760    -0.4380     0.0600 nb         1 3BK      -0.233000
     19 C9           2.9330    -0.8970     0.1430 ca         1 3BK       0.140500
     20 N5           1.7710    -0.1960     0.3670 na         1 3BK      -0.319300
     21 C10          1.6020     1.2400     0.3900 c5         1 3BK       0.316300
     22 O11          2.1170     1.7830    -0.7950 os         1 3BK      -0.424000
     23 C12          3.0210     2.8450    -0.5230 c5         1 3BK       0.174300
     24 C23          4.1280     2.8550    -1.5460 c3         1 3BK       0.162600
     25 O26          3.5910     3.1820    -2.8060 oh         1 3BK      -0.707000
     26 C13          3.5200     2.5920     0.8980 c5         1 3BK       0.090300
     27 O25          3.9000     3.8030     1.4980 oh         1 3BK      -0.713000
     28 C14          2.2910     1.9530     1.5620 c5         1 3BK       0.100300
     29 O24          1.4120     2.9410     2.0320 oh         1 3BK      -0.718000
     30 H18         -2.4220     0.1020    -1.1470 ha         1 3BK       0.147000
     31 H21         -6.0100    -1.5400     1.8190 ha         1 3BK       0.133000
     32 H22         -3.7400    -2.4560     2.0240 ha         1 3BK       0.121000
     33 H16         -1.4700    -2.4700     1.4390 h1         1 3BK       0.063700
     34 H16A        -1.3540    -2.4850    -0.3100 h1         1 3BK       0.063700
     35 HN15        -0.7150    -0.0630     1.2290 hn         1 3BK       0.478000
     36 HN27         2.3900    -4.8000    -0.4280 hn         1 3BK       0.497500
     37 HN2A         4.0700    -5.0690    -0.6390 hn         1 3BK       0.497500
     38 H2           6.0910    -1.0960    -0.2430 h5         1 3BK       0.043100
     39 H10          0.5250     1.4210     0.4470 h2         1 3BK       0.094700
     40 H12          2.4870     3.8060    -0.5520 h1         1 3BK       0.079700
     41 H23          4.8760     3.5900    -1.2200 h1         1 3BK       0.035200
     42 H23A         4.6160     1.8720    -1.5480 h1         1 3BK       0.035200
     43 HO26         4.3070     3.1750    -3.4470 ho         1 3BK       0.504000
     44 H13          4.3390     1.8690     0.8820 h1         1 3BK       0.088700
     45 HO25         4.5320     3.6160     2.2000 ho         1 3BK       0.515000
     46 H14          2.5600     1.2470     2.3570 h1         1 3BK       0.069700
     47 HO24         1.9510     3.6900     2.3180 ho         1 3BK       0.530000
@<TRIPOS>BOND
     1     1     2 ar  
     2     1     8 ar  
     3     1    30 1   
     4     2     3 1   
     5     2     4 ar  
     6     4     5 1   
     7     4     6 ar  
     8     6     7 ar  
     9     6    31 1   
    10     7     8 ar  
    11     7    32 1   
    12     8     9 1   
    13     9    10 1   
    14     9    33 1   
    15     9    34 1   
    16    10    11 1   
    17    10    35 1   
    18    11    12 2   
    19    11    20 1   
    20    12    13 1   
    21    13    14 ar  
    22    13    19 ar  
    23    14    15 1   
    24    14    16 ar  
    25    15    36 1   
    26    15    37 1   
    27    16    17 ar  
    28    17    18 ar  
    29    17    38 1   
    30    18    19 ar  
    31    19    20 1   
    32    20    21 1   
    33    21    22 1   
    34    21    28 1   
    35    21    39 1   
    36    22    23 1   
    37    23    24 1   
    38    23    26 1   
    39    23    40 1   
    40    24    25 1   
    41    24    41 1   
    42    24    42 1   
    43    25    43 1   
    44    26    27 1   
    45    26    28 1   
    46    26    44 1   
    47    27    45 1   
    48    28    29 1   
    49    28    46 1   
    50    29    47 1   
@<TRIPOS>SUBSTRUCTURE
     1 3BK         1 TEMP              0 ****  ****    0 ROOT
