@<TRIPOS>MOLECULE
3BL
   69    73     1     0     0
SMALL
No Charge or Current Charge


@<TRIPOS>ATOM
      1 C1          -1.1710     0.2400     1.1490 ca         1 3BL      -0.148600
      2 O1           5.8020     2.4770     1.3370 o          1 3BL      -0.507100
      3 C2          -1.8520     1.4660     1.0170 ca         1 3BL      -0.080000
      4 C3          -3.2120     1.4950     0.6640 ca         1 3BL      -0.107500
      5 C4          -3.9410     0.3000     0.4500 cp         1 3BL      -0.013000
      6 C5          -5.3900     0.3310     0.0710 cp         1 3BL      -0.043000
      7 C6          -6.2600     1.3330     0.5740 ca         1 3BL      -0.095500
      8 C24          5.4420     2.6410     0.1730 c          1 3BL       0.537900
      9 C23          4.0210     2.2870    -0.3700 c3         1 3BL       0.056500
     10 C25          3.2440     3.5880    -0.7310 c3         1 3BL       0.012900
     11 C26          1.9220     3.3560    -1.4330 cc         1 3BL      -0.213300
     12 N3           1.0940     2.2900    -1.1840 na         1 3BL      -0.289500
     13 C28         -0.0130     2.4000    -1.9840 cc         1 3BL       0.385400
     14 N2           0.0780     3.4890    -2.7370 nd         1 3BL      -0.678000
     15 C27          1.2790     4.0870    -2.4000 cd         1 3BL       0.228900
     16 C22          3.5940    -0.0080     0.6520 c3         1 3BL       0.152800
     17 C21          2.5670    -0.8740     1.4680 c6         1 3BL       0.103700
     18 C20          2.9770    -2.3760     1.4790 c6         1 3BL      -0.082400
     19 C19          2.7540    -3.0610     0.1020 c6         1 3BL      -0.058700
     20 C18          3.0910    -4.5750     0.1480 c6         1 3BL      -0.070400
     21 C17          2.8520    -5.2380    -1.2330 c6         1 3BL      -0.073400
     22 C16          1.4050    -5.0000    -1.7320 c6         1 3BL      -0.073400
     23 C15          1.0560    -3.4910    -1.7560 c6         1 3BL      -0.070400
     24 C14          1.2860    -2.8450    -0.3640 c6         1 3BL      -0.078700
     25 C13          0.9330    -1.3360    -0.3640 c6         1 3BL       0.102000
     26 N            1.1550    -0.7340     0.9850 n          1 3BL      -0.399800
     27 C            0.2890     0.2390     1.5460 c          1 3BL       0.615700
     28 O            0.6820     1.0180     2.4060 o          1 3BL      -0.597100
     29 C12         -1.8940    -0.9600     0.9710 ca         1 3BL      -0.080000
     30 C11         -3.2540    -0.9270     0.6180 ca         1 3BL      -0.107500
     31 C10         -5.9400    -0.6420    -0.8040 ca         1 3BL      -0.095500
     32 C9          -7.2990    -0.6130    -1.1610 ca         1 3BL      -0.110500
     33 C8          -8.1400     0.3880    -0.6490 ca         1 3BL      -0.103000
     34 C7          -7.6190     1.3610     0.2180 ca         1 3BL      -0.110500
     35 H1          -1.3210     2.4040     1.1730 ha         1 3BL       0.124000
     36 H2          -3.7000     2.4590     0.5420 ha         1 3BL       0.121000
     37 H3          -5.8810     2.0880     1.2580 ha         1 3BL       0.114000
     38 H5           4.1960     1.7590    -1.3180 h1         1 3BL       0.081700
     39 H6           3.0720     4.1680     0.1850 hc         1 3BL       0.060700
     40 H7           3.8810     4.2120    -1.3710 hc         1 3BL       0.060700
     41 H8           1.3000     1.5450    -0.5250 hn         1 3BL       0.380000
     42 H9          -0.8200     1.6770    -1.9750 h5         1 3BL       0.054100
     43 H11          1.6100     5.0070    -2.8680 h4         1 3BL       0.032100
     44 H12          3.1770     1.8270     1.4890 hn         1 3BL       0.445000
     45 H14          3.6910    -0.4310    -0.3560 h1         1 3BL       0.040700
     46 H15          4.5770    -0.0960     1.1340 h1         1 3BL       0.040700
     47 H16          2.6210    -0.5220     2.5080 h1         1 3BL       0.087700
     48 H17          4.0280    -2.4740     1.7850 hc         1 3BL       0.053200
     49 H18          2.3860    -2.8960     2.2450 hc         1 3BL       0.053200
     50 H19          3.4270    -2.5980    -0.6330 hc         1 3BL       0.046700
     51 H20          4.1380    -4.7190     0.4490 hc         1 3BL       0.041700
     52 H21          2.4750    -5.0750     0.9080 hc         1 3BL       0.041700
     53 H22          3.5660    -4.8340    -1.9640 hc         1 3BL       0.041200
     54 H23          3.0520    -6.3170    -1.1670 hc         1 3BL       0.041200
     55 H24          1.2820    -5.4280    -2.7360 hc         1 3BL       0.041200
     56 H25          0.6980    -5.5320    -1.0790 hc         1 3BL       0.041200
     57 H26          1.6690    -2.9820    -2.5130 hc         1 3BL       0.041700
     58 H27          0.0090    -3.3610    -2.0630 hc         1 3BL       0.041700
     59 H28          0.6160    -3.3400     0.3540 hc         1 3BL       0.055700
     60 H29          1.5700    -0.8180    -1.0950 h1         1 3BL       0.052700
     61 H30         -0.0960    -1.1970    -0.7120 h1         1 3BL       0.052700
     62 H31         -1.4080    -1.9220     1.1190 ha         1 3BL       0.124000
     63 H32         -3.7850    -1.8680     0.4930 ha         1 3BL       0.121000
     64 H33         -5.3040    -1.4180    -1.2220 ha         1 3BL       0.114000
     65 H34         -7.6990    -1.3670    -1.8360 ha         1 3BL       0.114500
     66 H35         -9.1920     0.4100    -0.9250 ha         1 3BL       0.114000
     67 H36         -8.2700     2.1360     0.6180 ha         1 3BL       0.114500
     68 N1           3.1980     1.4140     0.5440 n7         1 3BL      -0.888400
     69 H4           6.1400     3.0640    -0.5830 h4         1 3BL      -0.007800
@<TRIPOS>BOND
     1     1     3 ar  
     2     1    27 1   
     3     1    29 ar  
     4     2     8 2   
     5     3     4 ar  
     6     3    35 1   
     7     4     5 ar  
     8     4    36 1   
     9     5     6 1   
    10     5    30 ar  
    11     6     7 ar  
    12     6    31 ar  
    13     7    34 ar  
    14     7    37 1   
    15     8     9 1   
    16     8    69 1   
    17     9    10 1   
    18     9    38 1   
    19     9    68 1   
    20    10    11 1   
    21    10    39 1   
    22    10    40 1   
    23    11    12 1   
    24    11    15 2   
    25    12    13 1   
    26    12    41 1   
    27    13    14 2   
    28    13    42 1   
    29    14    15 1   
    30    15    43 1   
    31    16    17 1   
    32    16    45 1   
    33    16    46 1   
    34    16    68 1   
    35    17    18 1   
    36    17    26 1   
    37    17    47 1   
    38    18    19 1   
    39    18    48 1   
    40    18    49 1   
    41    19    20 1   
    42    19    24 1   
    43    19    50 1   
    44    20    21 1   
    45    20    51 1   
    46    20    52 1   
    47    21    22 1   
    48    21    53 1   
    49    21    54 1   
    50    22    23 1   
    51    22    55 1   
    52    22    56 1   
    53    23    24 1   
    54    23    57 1   
    55    23    58 1   
    56    24    25 1   
    57    24    59 1   
    58    25    26 1   
    59    25    60 1   
    60    25    61 1   
    61    26    27 1   
    62    27    28 2   
    63    29    30 ar  
    64    29    62 1   
    65    30    63 1   
    66    31    32 ar  
    67    31    64 1   
    68    32    33 ar  
    69    32    65 1   
    70    33    34 ar  
    71    33    66 1   
    72    34    67 1   
    73    44    68 1   
@<TRIPOS>SUBSTRUCTURE
     1 3BL         1 TEMP              0 ****  ****    0 ROOT
