@<TRIPOS>MOLECULE
3BL
   69    73     1     0     0
SMALL
abcg2


@<TRIPOS>ATOM
      1 C1          -1.1200     0.0640     1.1410 ca         1 3BL      -0.148600
      2 O1           5.5620     2.4620     1.4700 o          1 3BL      -0.507100
      3 C2          -1.7260     1.2940     0.9070 ca         1 3BL      -0.080000
      4 C3          -3.0620     1.3610     0.5460 ca         1 3BL      -0.107500
      5 C4          -3.8370     0.2040     0.4470 cp         1 3BL      -0.013000
      6 C5          -5.2670     0.2780     0.0880 cp         1 3BL      -0.043000
      7 C6          -6.0660     1.3260     0.5500 ca         1 3BL      -0.095500
      8 C24          5.2350     2.6950     0.3350 c          1 3BL       0.537900
      9 C23          3.9130     2.2840    -0.2760 c3         1 3BL       0.056500
     10 C25          3.1450     3.5690    -0.6390 c3         1 3BL       0.012900
     11 C26          1.9480     3.3150    -1.4850 cc         1 3BL      -0.213300
     12 N3           1.0460     2.3260    -1.2140 na         1 3BL      -0.289500
     13 C28          0.0770     2.3760    -2.1500 cc         1 3BL       0.385400
     14 N2           0.2890     3.3450    -3.0040 nd         1 3BL      -0.678000
     15 C27          1.4550     3.9370    -2.6000 cd         1 3BL       0.228900
     16 C22          3.5620     0.0420     0.6330 c3         1 3BL       0.152800
     17 C21          2.5630    -0.8230     1.4050 c6         1 3BL       0.103700
     18 C20          2.9480    -2.3040     1.3970 c6         1 3BL      -0.082400
     19 C19          2.6920    -2.9920     0.0600 c6         1 3BL      -0.058700
     20 C18          3.0060    -4.4840     0.1070 c6         1 3BL      -0.070400
     21 C17          2.7310    -5.1510    -1.2380 c6         1 3BL      -0.073400
     22 C16          1.2990    -4.8970    -1.7000 c6         1 3BL      -0.073400
     23 C15          0.9750    -3.4070    -1.7320 c6         1 3BL      -0.070400
     24 C14          1.2470    -2.7580    -0.3800 c6         1 3BL      -0.078700
     25 C13          0.9560    -1.2660    -0.4010 c6         1 3BL       0.102000
     26 N            1.2000    -0.6670     0.9020 n          1 3BL      -0.399800
     27 C            0.3000     0.0410     1.6150 c          1 3BL       0.615700
     28 O            0.5860     0.6610     2.6330 o          1 3BL      -0.597100
     29 C12         -1.8840    -1.0950     1.0430 ca         1 3BL      -0.080000
     30 C11         -3.2260    -1.0230     0.7070 ca         1 3BL      -0.107500
     31 C10         -5.8530    -0.7010    -0.7170 ca         1 3BL      -0.095500
     32 C9          -7.1980    -0.6340    -1.0490 ca         1 3BL      -0.110500
     33 C8          -7.9830     0.4130    -0.5840 ca         1 3BL      -0.103000
     34 C7          -7.4110     1.3920     0.2180 ca         1 3BL      -0.110500
     35 H1          -1.1540     2.2090     0.9940 ha         1 3BL       0.124000
     36 H2          -3.5000     2.3270     0.3310 ha         1 3BL       0.121000
     37 H3          -5.6410     2.0860     1.1930 ha         1 3BL       0.114000
     38 H5           4.1570     1.7640    -1.2110 h1         1 3BL       0.081700
     39 H6           2.8570     4.0740     0.2890 hc         1 3BL       0.060700
     40 H7           3.8030     4.2590    -1.1730 hc         1 3BL       0.060700
     41 H8           1.1990     1.6490    -0.4750 hn         1 3BL       0.380000
     42 H9          -0.7550     1.6880    -2.1650 h5         1 3BL       0.054100
     43 H11          1.8820     4.7780    -3.1260 h4         1 3BL       0.032100
     44 H12          2.9910     1.8110     1.4710 hn         1 3BL       0.445000
     45 H14          3.7070    -0.3290    -0.3860 h1         1 3BL       0.040700
     46 H15          4.5320    -0.0650     1.1350 h1         1 3BL       0.040700
     47 H16          2.5630    -0.4780     2.4380 h1         1 3BL       0.087700
     48 H17          4.0020    -2.3980     1.6760 hc         1 3BL       0.053200
     49 H18          2.3750    -2.8140     2.1770 hc         1 3BL       0.053200
     50 H19          3.3440    -2.5410    -0.7020 hc         1 3BL       0.046700
     51 H20          4.0490    -4.6350     0.4010 hc         1 3BL       0.041700
     52 H21          2.3930    -4.9550     0.8840 hc         1 3BL       0.041700
     53 H22          3.4280    -4.7570    -1.9850 hc         1 3BL       0.041200
     54 H23          2.9210    -6.2250    -1.1710 hc         1 3BL       0.041200
     55 H24          1.1350    -5.3370    -2.6870 hc         1 3BL       0.041200
     56 H25          0.6050    -5.3990    -1.0180 hc         1 3BL       0.041200
     57 H26          1.5810    -2.9140    -2.5010 hc         1 3BL       0.041700
     58 H27         -0.0700    -3.2540    -2.0180 hc         1 3BL       0.041700
     59 H28          0.5840    -3.2200     0.3650 hc         1 3BL       0.055700
     60 H29          1.6000    -0.7830    -1.1450 h1         1 3BL       0.052700
     61 H30         -0.0670    -1.0750    -0.7200 h1         1 3BL       0.052700
     62 H31         -1.4420    -2.0620     1.2490 ha         1 3BL       0.124000
     63 H32         -3.8060    -1.9360     0.6690 ha         1 3BL       0.121000
     64 H33         -5.2510    -1.5130    -1.1040 ha         1 3BL       0.114000
     65 H34         -7.6330    -1.4000    -1.6790 ha         1 3BL       0.114500
     66 H35         -9.0320     0.4650    -0.8430 ha         1 3BL       0.114000
     67 H36         -8.0150     2.2070     0.5950 ha         1 3BL       0.114500
     68 N1           3.1030     1.4150     0.5440 n7         1 3BL      -0.888400
     69 H4           5.8960     3.2600    -0.3470 h4         1 3BL      -0.007800
@<TRIPOS>BOND
     1     1     3 ar  
     2     1    27 1   
     3     1    29 ar  
     4     2     8 2   
     5     3     4 ar  
     6     3    35 1   
     7     4     5 ar  
     8     4    36 1   
     9     5     6 1   
    10     5    30 ar  
    11     6     7 ar  
    12     6    31 ar  
    13     7    34 ar  
    14     7    37 1   
    15     8     9 1   
    16     8    69 1   
    17     9    10 1   
    18     9    38 1   
    19     9    68 1   
    20    10    11 1   
    21    10    39 1   
    22    10    40 1   
    23    11    12 1   
    24    11    15 2   
    25    12    13 1   
    26    12    41 1   
    27    13    14 2   
    28    13    42 1   
    29    14    15 1   
    30    15    43 1   
    31    16    17 1   
    32    16    45 1   
    33    16    46 1   
    34    16    68 1   
    35    17    18 1   
    36    17    26 1   
    37    17    47 1   
    38    18    19 1   
    39    18    48 1   
    40    18    49 1   
    41    19    20 1   
    42    19    24 1   
    43    19    50 1   
    44    20    21 1   
    45    20    51 1   
    46    20    52 1   
    47    21    22 1   
    48    21    53 1   
    49    21    54 1   
    50    22    23 1   
    51    22    55 1   
    52    22    56 1   
    53    23    24 1   
    54    23    57 1   
    55    23    58 1   
    56    24    25 1   
    57    24    59 1   
    58    25    26 1   
    59    25    60 1   
    60    25    61 1   
    61    26    27 1   
    62    27    28 2   
    63    29    30 ar  
    64    29    62 1   
    65    30    63 1   
    66    31    32 ar  
    67    31    64 1   
    68    32    33 ar  
    69    32    65 1   
    70    33    34 ar  
    71    33    66 1   
    72    34    67 1   
    73    44    68 1   
@<TRIPOS>SUBSTRUCTURE
     1 3BL         1 TEMP              0 ****  ****    0 ROOT
