@<TRIPOS>MOLECULE
3BM
   40    41     1     0     0
SMALL
bcc


@<TRIPOS>ATOM
      1 C01          0.5580     1.1090     0.6200 ca         1 3BM       0.203600
      2 C02          0.5710     0.5060    -0.6400 ca         1 3BM      -0.187000
      3 C03          1.0460    -0.7800    -0.8200 ca         1 3BM      -0.056000
      4 C04          1.5510    -1.4830     0.2640 ca         1 3BM       0.033900
      5 C05          1.5820    -0.9040     1.5230 ca         1 3BM      -0.052000
      6 C06          1.0790     0.3750     1.6890 ca         1 3BM      -0.019600
      7 N07          0.0760     2.3860     0.8070 nu         1 3BM      -0.655000
      8 C08         -0.9140     2.9740     0.0390 ca         1 3BM       0.208600
      9 C09         -2.0600     2.2940    -0.3980 ca         1 3BM      -0.195600
     10 C10         -2.9900     2.9450    -1.2000 ca         1 3BM      -0.069000
     11 C11         -2.8380     4.2770    -1.5510 ca         1 3BM      -0.182000
     12 C12         -1.7250     4.9500    -1.0950 ca         1 3BM       0.147900
     13 C13         -0.7700     4.3070    -0.3300 ca         1 3BM       0.037900
     14 C14         -2.3600     0.9160     0.1050 c          1 3BM       0.685700
     15 N15         -2.7010     0.0590    -0.8770 ns         1 3BM      -0.449400
     16 O16         -2.3490     0.6320     1.2860 o          1 3BM      -0.541100
     17 O17         -2.8930    -1.2500    -0.5760 os         1 3BM      -0.182900
     18 C18         -4.2790    -1.5540    -0.4340 c3         1 3BM       0.073400
     19 C19         -4.3850    -3.0430    -0.1560 c3         1 3BM       0.140100
     20 C20         -5.8270    -3.4030     0.1650 c3         1 3BM       0.108400
     21 O21         -3.8520    -3.8180    -1.2030 oh         1 3BM      -0.562800
     22 O22         -5.8800    -4.7580     0.5330 oh         1 3BM      -0.578800
     23 I23          2.2810    -3.4340     0.0030 i          1 3BM      -0.159900
     24 CL24         1.0920     1.0770     3.2710 cl         1 3BM      -0.099400
     25 F25          0.3160     4.9800     0.0590 f          1 3BM      -0.119900
     26 F26         -1.5320     6.2320    -1.4040 f          1 3BM      -0.116900
     27 H02          0.2190     1.0570    -1.5020 ha         1 3BM       0.137000
     28 H03          1.0320    -1.2100    -1.8120 ha         1 3BM       0.148000
     29 H05          1.9740    -1.4350     2.3790 ha         1 3BM       0.161000
     30 HN07         0.4600     2.9260     1.5670 hn         1 3BM       0.470800
     31 H10         -3.8770     2.4190    -1.5270 ha         1 3BM       0.145000
     32 H11         -3.5760     4.7880    -2.1530 ha         1 3BM       0.161000
     33 HN15        -2.4900     0.2430    -1.8500 hn         1 3BM       0.337500
     34 H18         -4.7100    -0.9830     0.3930 h1         1 3BM       0.040200
     35 H18A        -4.8210    -1.2870    -1.3500 h1         1 3BM       0.040200
     36 H19         -3.7740    -3.2710     0.7240 h1         1 3BM       0.107700
     37 H20         -6.1820    -2.7470     0.9710 h1         1 3BM       0.019700
     38 H20A        -6.4570    -3.1950    -0.7120 h1         1 3BM       0.019700
     39 HO21        -4.4030    -3.7030    -1.9850 ho         1 3BM       0.393000
     40 HO22        -6.8000    -4.9890     0.6930 ho         1 3BM       0.405000
@<TRIPOS>BOND
     1     1     2 ar  
     2     1     6 ar  
     3     1     7 1   
     4     2     3 ar  
     5     2    27 1   
     6     3     4 ar  
     7     3    28 1   
     8     4     5 ar  
     9     4    23 1   
    10     5     6 ar  
    11     5    29 1   
    12     6    24 1   
    13     7     8 1   
    14     7    30 1   
    15     8     9 ar  
    16     8    13 ar  
    17     9    10 ar  
    18     9    14 1   
    19    10    11 ar  
    20    10    31 1   
    21    11    12 ar  
    22    11    32 1   
    23    12    13 ar  
    24    12    26 1   
    25    13    25 1   
    26    14    15 1   
    27    14    16 2   
    28    15    17 1   
    29    15    33 1   
    30    17    18 1   
    31    18    19 1   
    32    18    34 1   
    33    18    35 1   
    34    19    20 1   
    35    19    21 1   
    36    19    36 1   
    37    20    22 1   
    38    20    37 1   
    39    20    38 1   
    40    21    39 1   
    41    22    40 1   
@<TRIPOS>SUBSTRUCTURE
     1 3BM         1 TEMP              0 ****  ****    0 ROOT
