@<TRIPOS>MOLECULE
3BM
   40    41     1     0     0
SMALL
No Charge or Current Charge


@<TRIPOS>ATOM
      1 C01          0.7030     1.0940     0.7250 ca         1 3BM       0.342000
      2 C02          0.7010     0.4160    -0.5090 ca         1 3BM      -0.169000
      3 C03          1.3750    -0.8110    -0.6500 ca         1 3BM      -0.038000
      4 C04          2.0660    -1.3620     0.4410 ca         1 3BM       0.171000
      5 C05          2.0940    -0.6860     1.6700 ca         1 3BM      -0.034000
      6 C06          1.4210     0.5400     1.8140 ca         1 3BM       0.072000
      7 N07          0.0310     2.3180     0.8590 nu         1 3BM      -0.987000
      8 C08         -0.9390     2.9760     0.0840 ca         1 3BM       0.347000
      9 C09         -2.0680     2.3050    -0.4560 ca         1 3BM      -0.195600
     10 C10         -2.9560     3.0170    -1.3000 ca         1 3BM      -0.051000
     11 C11         -2.7470     4.3770    -1.5770 ca         1 3BM      -0.164000
     12 C12         -1.6570     5.0450    -1.0100 ca         1 3BM       0.183000
     13 C13         -0.7590     4.3560    -0.1810 ca         1 3BM       0.073000
     14 C14         -2.3910     0.8710    -0.1140 c          1 3BM       0.618700
     15 N15         -2.9530     0.1360    -1.1470 ns         1 3BM      -0.382400
     16 O16         -2.2590     0.4000     1.0090 o          1 3BM      -0.541100
     17 O17         -3.1560    -1.2720    -0.9480 os         1 3BM      -0.206100
     18 C18         -4.5250    -1.5600    -0.6110 c3         1 3BM       0.096600
     19 C19         -4.6690    -3.0840    -0.3740 c3         1 3BM       0.163300
     20 C20         -6.0760    -3.4560     0.1640 c3         1 3BM       0.131600
     21 O21         -4.4370    -3.8130    -1.5950 oh         1 3BM      -0.625000
     22 O22         -6.1900    -4.8820     0.3140 oh         1 3BM      -0.641000
     23 I23          3.1030    -3.2510     0.2220 i          1 3BM      -0.297000
     24 Cl24         1.4850     1.3690     3.3760 cl         1 3BM      -0.191000
     25 F25          0.3030     5.0210     0.3450 f          1 3BM      -0.155000
     26 F26         -1.4730     6.3600    -1.2720 f          1 3BM      -0.152000
     27 H02          0.1870     0.8400    -1.3660 ha         1 3BM       0.119000
     28 H03          1.3670    -1.3330    -1.6030 ha         1 3BM       0.130000
     29 H05          2.6370    -1.1110     2.5090 ha         1 3BM       0.143000
     30 HN07         0.4130     2.9000     1.6090 hn         1 3BM       0.526000
     31 H10         -3.8380     2.5340    -1.7180 ha         1 3BM       0.127000
     32 H11         -3.4400     4.9180    -2.2170 ha         1 3BM       0.143000
     33 HN15        -2.9970     0.4750    -2.1030 hn         1 3BM       0.337500
     34 H18         -4.8110    -1.0250     0.3040 h1         1 3BM       0.040200
     35 H18A        -5.2000    -1.2450    -1.4180 h1         1 3BM       0.040200
     36 H19         -3.9360    -3.3760     0.3920 h1         1 3BM       0.107700
     37 H20         -6.2330    -2.9600     1.1310 h1         1 3BM       0.019700
     38 H20A        -6.8420    -3.0850    -0.5300 h1         1 3BM       0.019700
     39 HO21        -4.8690    -4.6850    -1.4520 ho         1 3BM       0.432000
     40 HO22        -7.0760    -5.0620     0.7010 ho         1 3BM       0.444000
@<TRIPOS>BOND
     1     1     2 ar  
     2     1     6 ar  
     3     1     7 1   
     4     2     3 ar  
     5     2    27 1   
     6     3     4 ar  
     7     3    28 1   
     8     4     5 ar  
     9     4    23 1   
    10     5     6 ar  
    11     5    29 1   
    12     6    24 1   
    13     7     8 1   
    14     7    30 1   
    15     8     9 ar  
    16     8    13 ar  
    17     9    10 ar  
    18     9    14 1   
    19    10    11 ar  
    20    10    31 1   
    21    11    12 ar  
    22    11    32 1   
    23    12    13 ar  
    24    12    26 1   
    25    13    25 1   
    26    14    15 1   
    27    14    16 2   
    28    15    17 1   
    29    15    33 1   
    30    17    18 1   
    31    18    19 1   
    32    18    34 1   
    33    18    35 1   
    34    19    20 1   
    35    19    21 1   
    36    19    36 1   
    37    20    22 1   
    38    20    37 1   
    39    20    38 1   
    40    21    39 1   
    41    22    40 1   
@<TRIPOS>SUBSTRUCTURE
     1 3BM         1 TEMP              0 ****  ****    0 ROOT
