@<TRIPOS>MOLECULE
3BN
   71    74     1     0     0
SMALL
No Charge or Current Charge


@<TRIPOS>ATOM
      1 C1          -3.7230     6.2250     2.7150 cx         1 3BN      -0.124400
      2 C2          -3.5270     5.4250     1.4520 cx         1 3BN       0.098500
      3 C3          -2.3550     5.6900     2.3650 cx         1 3BN      -0.124400
      4 N1          -4.0640     4.0820     1.4340 n7         1 3BN      -0.847400
      5 C4          -3.3800     3.1450     0.5110 c3         1 3BN       0.135800
      6 C5          -4.1060     1.7660     0.4540 c3         1 3BN       0.148300
      7 C6          -3.4210     0.7340    -0.5000 c3         1 3BN       0.080700
      8 N2          -2.0010     0.5210    -0.1830 ns         1 3BN      -0.497900
      9 C7          -0.9410     1.1360    -0.8140 c          1 3BN       0.618700
     10 O2          -1.1000     2.0910    -1.5610 o          1 3BN      -0.592100
     11 O3          -5.4850     1.9600     0.0660 oh         1 3BN      -0.652000
     12 C8          -4.1450    -0.6410    -0.5230 c3         1 3BN      -0.041100
     13 C9           0.4170     0.5300    -0.5530 ca         1 3BN      -0.150600
     14 C10          0.5550    -0.7990    -0.1010 ca         1 3BN      -0.056000
     15 C11          1.8300    -1.3490     0.1350 ca         1 3BN      -0.157600
     16 C12          2.9760    -0.5640    -0.1180 ca         1 3BN      -0.033000
     17 C13          2.8730     0.7680    -0.5840 ca         1 3BN       0.260000
     18 C14          1.5800     1.2900    -0.8010 ca         1 3BN      -0.059000
     19 C15          1.9880    -2.7810     0.5980 c          1 3BN       0.592300
     20 N3           4.0020     1.5990    -0.8460 nh         1 3BN      -0.786300
     21 O4           2.9960    -3.4170     0.3130 o          1 3BN      -0.504100
     22 C16          3.9570     3.0530    -0.5680 c3         1 3BN       0.203100
     23 C17          0.6280    -4.8040     1.2770 ca         1 3BN      -0.067000
     24 C18         -0.3900    -5.4160     2.0280 ca         1 3BN      -0.125000
     25 C19         -1.1540    -4.6580     2.9290 ca         1 3BN      -0.086000
     26 C20         -0.8910    -3.2880     3.0890 ca         1 3BN      -0.125000
     27 C21          0.1290    -2.6730     2.3430 ca         1 3BN      -0.067000
     28 C22          0.8870    -3.4220     1.4140 ca         1 3BN      -0.166600
     29 S1           5.5520     0.9690    -1.3120 s6         1 3BN       1.204100
     30 C23          6.3620     0.5610     0.2280 c3         1 3BN      -0.350100
     31 O5           5.3060    -0.2690    -2.0580 o          1 3BN      -0.526000
     32 O6           6.2870     2.0690    -1.9450 o          1 3BN      -0.526000
     33 C24         -2.8830    -2.8550    -0.4330 ca         1 3BN      -0.110000
     34 C25         -2.0960    -3.8520    -1.0330 ca         1 3BN      -0.107500
     35 C26         -1.7400    -3.7480    -2.3880 ca         1 3BN      -0.108000
     36 C27         -2.1770    -2.6480    -3.1440 ca         1 3BN      -0.107500
     37 C28         -2.9670    -1.6510    -2.5450 ca         1 3BN      -0.110000
     38 C29         -3.3230    -1.7470    -1.1850 ca         1 3BN      -0.084300
     39 H11         -3.8900     7.2940     2.6130 hc         1 3BN       0.073950
     40 H12A        -4.2520     5.7570     3.5420 hc         1 3BN       0.073950
     41 H2          -3.5590     5.9700     0.5070 h1         1 3BN       0.055700
     42 H31         -1.9680     4.8620     2.9540 hc         1 3BN       0.073950
     43 H32         -1.6040     6.3980     2.0250 hc         1 3BN       0.073950
     44 HN1         -5.0570     4.1100     1.1670 hn         1 3BN       0.425000
     45 H41         -2.3430     2.9940     0.8400 h1         1 3BN       0.042700
     46 H42         -3.3440     3.5630    -0.5040 h1         1 3BN       0.042700
     47 H5          -4.0690     1.3430     1.4680 h1         1 3BN       0.084700
     48 H6          -3.4700     1.1410    -1.5200 h1         1 3BN       0.080700
     49 HN2         -1.7700    -0.2450     0.4360 hn         1 3BN       0.317500
     50 HO3         -5.4830     2.4040    -0.8090 ho         1 3BN       0.439000
     51 H81         -4.3880    -0.9270     0.5080 hc         1 3BN       0.060700
     52 H82         -5.1070    -0.5350    -1.0400 hc         1 3BN       0.060700
     53 H10         -0.3250    -1.4260     0.0280 ha         1 3BN       0.137000
     54 H12          3.9460    -1.0090     0.0580 ha         1 3BN       0.135000
     55 H14          1.4730     2.3030    -1.1780 ha         1 3BN       0.138000
     56 H161         3.1720     3.2860     0.1620 h1         1 3BN       0.050700
     57 H162         4.9050     3.4070    -0.1410 h1         1 3BN       0.050700
     58 H163         3.7540     3.6140    -1.4900 h1         1 3BN       0.050700
     59 H18         -0.5870    -6.4790     1.9090 ha         1 3BN       0.119000
     60 H19         -1.9430    -5.1330     3.5090 ha         1 3BN       0.117000
     61 H20         -1.4730    -2.7030     3.7980 ha         1 3BN       0.119000
     62 H21          0.3330    -1.6160     2.4990 ha         1 3BN       0.124500
     63 H231         5.7690    -0.1830     0.7620 h1         1 3BN       0.104033
     64 H232         7.3530     0.1690    -0.0220 h1         1 3BN       0.104033
     65 H233         6.4420     1.4870     0.8070 h1         1 3BN       0.104033
     66 H24         -3.1430    -2.9440     0.6200 ha         1 3BN       0.110000
     67 H25         -1.7610    -4.7050    -0.4480 ha         1 3BN       0.117000
     68 H26         -1.1290    -4.5190    -2.8520 ha         1 3BN       0.116000
     69 H27         -1.9030    -2.5660    -4.1940 ha         1 3BN       0.117000
     70 H28         -3.2960    -0.8000    -3.1370 ha         1 3BN       0.110000
     71 H17          1.2100    -5.4040     0.5790 ha         1 3BN       0.124500
@<TRIPOS>BOND
     1     1     2 1   
     2     1     3 1   
     3     1    39 1   
     4     1    40 1   
     5     2     3 1   
     6     2     4 1   
     7     2    41 1   
     8     3    42 1   
     9     3    43 1   
    10     4     5 1   
    11     4    44 1   
    12     5     6 1   
    13     5    45 1   
    14     5    46 1   
    15     6     7 1   
    16     6    11 1   
    17     6    47 1   
    18     7     8 1   
    19     7    12 1   
    20     7    48 1   
    21     8     9 1   
    22     8    49 1   
    23     9    10 2   
    24     9    13 1   
    25    11    50 1   
    26    12    38 1   
    27    12    51 1   
    28    12    52 1   
    29    13    14 ar  
    30    13    18 ar  
    31    14    15 ar  
    32    14    53 1   
    33    15    16 ar  
    34    15    19 1   
    35    16    17 ar  
    36    16    54 1   
    37    17    18 ar  
    38    17    20 1   
    39    18    55 1   
    40    19    21 2   
    41    19    28 1   
    42    20    22 1   
    43    20    29 1   
    44    22    56 1   
    45    22    57 1   
    46    22    58 1   
    47    23    24 ar  
    48    23    28 ar  
    49    23    71 1   
    50    24    25 ar  
    51    24    59 1   
    52    25    26 ar  
    53    25    60 1   
    54    26    27 ar  
    55    26    61 1   
    56    27    28 ar  
    57    27    62 1   
    58    29    30 1   
    59    29    31 2   
    60    29    32 2   
    61    30    63 1   
    62    30    64 1   
    63    30    65 1   
    64    33    34 ar  
    65    33    38 ar  
    66    33    66 1   
    67    34    35 ar  
    68    34    67 1   
    69    35    36 ar  
    70    35    68 1   
    71    36    37 ar  
    72    36    69 1   
    73    37    38 ar  
    74    37    70 1   
@<TRIPOS>SUBSTRUCTURE
     1 3BN         1 TEMP              0 ****  ****    0 ROOT
