@<TRIPOS>MOLECULE
3BN
   71    74     1     0     0
SMALL
abcg2


@<TRIPOS>ATOM
      1 C1          -3.0050     6.3470     2.2500 cx         1 3BN      -0.124400
      2 C2          -3.1020     5.4830     1.0340 cx         1 3BN       0.098500
      3 C3          -1.7860     5.6450     1.7270 cx         1 3BN      -0.124400
      4 N1          -3.7600     4.2210     1.1650 n7         1 3BN      -0.847400
      5 C4          -3.2860     3.2370     0.2110 c3         1 3BN       0.135800
      6 C5          -3.9920     1.9030     0.4150 c3         1 3BN       0.148300
      7 C6          -3.4130     0.7930    -0.4770 c3         1 3BN       0.080700
      8 N2          -2.0240     0.5520    -0.1520 ns         1 3BN      -0.497900
      9 C7          -0.9900     0.8880    -0.9400 c          1 3BN       0.618700
     10 O2          -1.0860     1.5760    -1.9440 o          1 3BN      -0.592100
     11 O3          -5.3860     2.0290     0.2310 oh         1 3BN      -0.652000
     12 C8          -4.2100    -0.5160    -0.3500 c3         1 3BN      -0.041100
     13 C9           0.3370     0.3620    -0.4900 ca         1 3BN      -0.150600
     14 C10          0.4940    -0.9640    -0.1070 ca         1 3BN      -0.056000
     15 C11          1.7550    -1.4360     0.2520 ca         1 3BN      -0.157600
     16 C12          2.8440    -0.5720     0.2470 ca         1 3BN      -0.033000
     17 C13          2.6860     0.7540    -0.1340 ca         1 3BN       0.260000
     18 C14          1.4360     1.2110    -0.5280 ca         1 3BN      -0.059000
     19 C15          1.9920    -2.8700     0.5870 c          1 3BN       0.592300
     20 N3           3.7840     1.6440    -0.0720 nh         1 3BN      -0.786300
     21 O4           3.0590    -3.3840     0.3210 o          1 3BN      -0.504100
     22 C16          3.5610     3.0070     0.4020 c3         1 3BN       0.203100
     23 C17          0.8720    -5.0360     1.0330 ca         1 3BN      -0.067000
     24 C18         -0.0870    -5.8080     1.6670 ca         1 3BN      -0.125000
     25 C19         -0.9940    -5.2140     2.5380 ca         1 3BN      -0.086000
     26 C20         -0.9400    -3.8470     2.7710 ca         1 3BN      -0.125000
     27 C21          0.0070    -3.0690     2.1210 ca         1 3BN      -0.067000
     28 C22          0.9180    -3.6570     1.2450 ca         1 3BN      -0.166600
     29 S1           5.0700     1.4180    -1.1150 s6         1 3BN       1.204100
     30 C23          6.4370     1.1690    -0.0130 c3         1 3BN      -0.350100
     31 O5           4.8260     0.1910    -1.8550 o          1 3BN      -0.526000
     32 O6           5.3000     2.6530    -1.8500 o          1 3BN      -0.526000
     33 C24         -2.9210    -2.6680    -0.2100 ca         1 3BN      -0.110000
     34 C25         -2.1960    -3.7030    -0.7870 ca         1 3BN      -0.107500
     35 C26         -2.0360    -3.7540    -2.1640 ca         1 3BN      -0.108000
     36 C27         -2.6100    -2.7670    -2.9570 ca         1 3BN      -0.107500
     37 C28         -3.3330    -1.7350    -2.3750 ca         1 3BN      -0.110000
     38 C29         -3.4930    -1.6690    -0.9920 ca         1 3BN      -0.084300
     39 H11         -3.0760     7.4200     2.1230 hc         1 3BN       0.073950
     40 H12A        -3.4490     5.9710     3.1630 hc         1 3BN       0.073950
     41 H2          -3.2030     6.0030     0.0800 h1         1 3BN       0.055700
     42 H31         -1.4150     4.7950     2.2870 hc         1 3BN       0.073950
     43 H32         -1.0190     6.2330     1.2410 hc         1 3BN       0.073950
     44 HN1         -4.7580     4.3480     1.0560 hn         1 3BN       0.425000
     45 H41         -2.2130     3.1100     0.3690 h1         1 3BN       0.042700
     46 H42         -3.4120     3.5550    -0.8380 h1         1 3BN       0.042700
     47 H5          -3.8620     1.6020     1.4610 h1         1 3BN       0.084700
     48 H6          -3.4420     1.1240    -1.5190 h1         1 3BN       0.080700
     49 HN2         -1.8270     0.0670     0.7100 hn         1 3BN       0.317500
     50 HO3         -5.5510     2.3150    -0.6750 ho         1 3BN       0.439000
     51 H81         -4.3820    -0.7370     0.7070 hc         1 3BN       0.060700
     52 H82         -5.1920    -0.3720    -0.8030 hc         1 3BN       0.060700
     53 H10         -0.3530    -1.6390    -0.1380 ha         1 3BN       0.137000
     54 H12          3.8120    -0.9300     0.5690 ha         1 3BN       0.135000
     55 H14          1.3080     2.2360    -0.8520 ha         1 3BN       0.138000
     56 H161         2.9050     2.9620     1.2680 h1         1 3BN       0.050700
     57 H162         4.4990     3.4500     0.7310 h1         1 3BN       0.050700
     58 H163         3.1160     3.6590    -0.3500 h1         1 3BN       0.050700
     59 H18         -0.1290    -6.8730     1.4830 ha         1 3BN       0.119000
     60 H19         -1.7400    -5.8190     3.0360 ha         1 3BN       0.117000
     61 H20         -1.6350    -3.3830     3.4590 ha         1 3BN       0.119000
     62 H21          0.0480    -2.0060     2.3250 ha         1 3BN       0.124500
     63 H231         6.2700     0.2630     0.5640 h1         1 3BN       0.104033
     64 H232         7.3380     1.0710    -0.6160 h1         1 3BN       0.104033
     65 H233         6.5320     2.0250     0.6510 h1         1 3BN       0.104033
     66 H24         -3.0390    -2.6340     0.8670 ha         1 3BN       0.110000
     67 H25         -1.7510    -4.4630    -0.1580 ha         1 3BN       0.117000
     68 H26         -1.4700    -4.5560    -2.6190 ha         1 3BN       0.116000
     69 H27         -2.4940    -2.8010    -4.0330 ha         1 3BN       0.117000
     70 H28         -3.7730    -0.9690    -3.0030 ha         1 3BN       0.110000
     71 H17          1.5790    -5.5030     0.3600 ha         1 3BN       0.124500
@<TRIPOS>BOND
     1     1     2 1   
     2     1     3 1   
     3     1    39 1   
     4     1    40 1   
     5     2     3 1   
     6     2     4 1   
     7     2    41 1   
     8     3    42 1   
     9     3    43 1   
    10     4     5 1   
    11     4    44 1   
    12     5     6 1   
    13     5    45 1   
    14     5    46 1   
    15     6     7 1   
    16     6    11 1   
    17     6    47 1   
    18     7     8 1   
    19     7    12 1   
    20     7    48 1   
    21     8     9 1   
    22     8    49 1   
    23     9    10 2   
    24     9    13 1   
    25    11    50 1   
    26    12    38 1   
    27    12    51 1   
    28    12    52 1   
    29    13    14 ar  
    30    13    18 ar  
    31    14    15 ar  
    32    14    53 1   
    33    15    16 ar  
    34    15    19 1   
    35    16    17 ar  
    36    16    54 1   
    37    17    18 ar  
    38    17    20 1   
    39    18    55 1   
    40    19    21 2   
    41    19    28 1   
    42    20    22 1   
    43    20    29 1   
    44    22    56 1   
    45    22    57 1   
    46    22    58 1   
    47    23    24 ar  
    48    23    28 ar  
    49    23    71 1   
    50    24    25 ar  
    51    24    59 1   
    52    25    26 ar  
    53    25    60 1   
    54    26    27 ar  
    55    26    61 1   
    56    27    28 ar  
    57    27    62 1   
    58    29    30 1   
    59    29    31 2   
    60    29    32 2   
    61    30    63 1   
    62    30    64 1   
    63    30    65 1   
    64    33    34 ar  
    65    33    38 ar  
    66    33    66 1   
    67    34    35 ar  
    68    34    67 1   
    69    35    36 ar  
    70    35    68 1   
    71    36    37 ar  
    72    36    69 1   
    73    37    38 ar  
    74    37    70 1   
@<TRIPOS>SUBSTRUCTURE
     1 3BN         1 TEMP              0 ****  ****    0 ROOT
