@<TRIPOS>MOLECULE
3BO
   20    21     1     0     0
SMALL
abcg2


@<TRIPOS>ATOM
      1 C01          1.9780     1.8100     0.0740 ca         1 3BO      -0.135000
      2 C02          2.9160     0.8390    -0.3190 ca         1 3BO      -0.090000
      3 C03          2.5650    -0.4910    -0.4410 ca         1 3BO      -0.126000
      4 C04          1.2440    -0.8360    -0.1590 ca         1 3BO      -0.048200
      5 C05          0.2880     0.1240     0.2390 ca         1 3BO      -0.088800
      6 C06          0.6710     1.4650     0.3530 ca         1 3BO      -0.059000
      7 C07         -0.9400    -0.5800     0.4460 cc         1 3BO      -0.158400
      8 C08         -0.6880    -1.8940     0.1720 cd         1 3BO      -0.141100
      9 N09          0.6170    -2.0480    -0.1890 na         1 3BO      -0.218700
     10 C10         -2.2450     0.0040     0.8820 c3         1 3BO       0.067900
     11 C11         -2.8130     0.8820    -0.1370 c1         1 3BO       0.302900
     12 N12         -3.2470     1.5740    -0.9480 n1         1 3BO      -0.468000
     13 H1           2.2900     2.8430     0.1570 ha         1 3BO       0.113000
     14 H2           3.9330     1.1400    -0.5320 ha         1 3BO       0.111000
     15 H3           3.2890    -1.2370    -0.7430 ha         1 3BO       0.113000
     16 H4          -0.0440     2.2230     0.6530 ha         1 3BO       0.117000
     17 H5          -1.3550    -2.7410     0.2120 h4         1 3BO       0.214000
     18 H6           1.0470    -2.9260    -0.4270 hn         1 3BO       0.352000
     19 H7          -2.9740    -0.7810     1.0900 hc         1 3BO       0.070700
     20 H8          -2.1410     0.5880     1.8010 hc         1 3BO       0.070700
@<TRIPOS>BOND
     1     1     2 ar  
     2     1     6 ar  
     3     1    13 1   
     4     2     3 ar  
     5     2    14 1   
     6     3     4 ar  
     7     3    15 1   
     8     4     5 ar  
     9     4     9 1   
    10     5     6 ar  
    11     5     7 1   
    12     6    16 1   
    13     7     8 2   
    14     7    10 1   
    15     8     9 1   
    16     8    17 1   
    17     9    18 1   
    18    10    11 1   
    19    10    19 1   
    20    10    20 1   
    21    11    12 3   
@<TRIPOS>SUBSTRUCTURE
     1 3BO         1 TEMP              0 ****  ****    0 ROOT
