@<TRIPOS>MOLECULE
3BO
   20    21     1     0     0
SMALL
No Charge or Current Charge


@<TRIPOS>ATOM
      1 C01          2.0120     1.8200     0.1160 ca         1 3BO      -0.135000
      2 C02          2.9540     0.8460    -0.2940 ca         1 3BO      -0.090000
      3 C03          2.5670    -0.5030    -0.4350 ca         1 3BO      -0.126000
      4 C04          1.2350    -0.8410    -0.1590 ca         1 3BO      -0.048200
      5 C05          0.3270     0.1000     0.2370 ca         1 3BO      -0.088800
      6 C06          0.6780     1.4500     0.3870 ca         1 3BO      -0.059000
      7 C07         -0.9320    -0.5610     0.4360 cc         1 3BO      -0.158400
      8 C08         -0.7090    -1.9030     0.1410 cd         1 3BO      -0.141100
      9 N09          0.6450    -2.0890    -0.2330 na         1 3BO      -0.218700
     10 C10         -2.2270     0.0800     0.8740 c3         1 3BO       0.067900
     11 C11         -2.9240     0.8220    -0.1850 c1         1 3BO       0.302900
     12 N12         -3.4960     1.4210    -1.0060 n1         1 3BO      -0.468000
     13 H1           2.3180     2.8580     0.2230 ha         1 3BO       0.113000
     14 H2           3.9810     1.1390    -0.5010 ha         1 3BO       0.111000
     15 H3           3.2830    -1.2580    -0.7500 ha         1 3BO       0.113000
     16 H4          -0.0530     2.1910     0.7020 ha         1 3BO       0.117000
     17 H5          -1.4100    -2.7340     0.1680 h4         1 3BO       0.214000
     18 H6           1.0920    -2.9620    -0.5010 hn         1 3BO       0.352000
     19 H7          -2.9100    -0.6860     1.2580 hc         1 3BO       0.070700
     20 H8          -2.0380     0.7670     1.7060 hc         1 3BO       0.070700
@<TRIPOS>BOND
     1     1     2 ar  
     2     1     6 ar  
     3     1    13 1   
     4     2     3 ar  
     5     2    14 1   
     6     3     4 ar  
     7     3    15 1   
     8     4     5 ar  
     9     4     9 1   
    10     5     6 ar  
    11     5     7 1   
    12     6    16 1   
    13     7     8 2   
    14     7    10 1   
    15     8     9 1   
    16     8    17 1   
    17     9    18 1   
    18    10    11 1   
    19    10    19 1   
    20    10    20 1   
    21    11    12 3   
@<TRIPOS>SUBSTRUCTURE
     1 3BO         1 TEMP              0 ****  ****    0 ROOT
