@<TRIPOS>MOLECULE
3BP
   78    80     1     0     0
SMALL
abcg2


@<TRIPOS>ATOM
      1 C15         35.8250     7.5430    10.3090 c          1 3BP       0.567100
      2 O1          35.1840     8.2770    11.0580 o          1 3BP      -0.608100
      3 N17         35.6500     7.4920     8.9770 ns         1 3BP      -0.480900
      4 C18         34.6160     8.2400     8.2780 c3         1 3BP       0.034700
      5 C19         35.0500     8.5710     6.8550 c3         1 3BP      -0.072400
      6 C20         36.2450     9.5220     6.8250 c3         1 3BP      -0.157400
      7 C28         33.3340     7.3940     8.2880 c          1 3BP       0.573100
      8 O30         33.2830     6.3120     7.7050 o          1 3BP      -0.581100
      9 N31         32.3240     7.9130     9.0060 ns         1 3BP      -0.494900
     10 C32         31.0940     7.2060     9.3180 c3         1 3BP       0.145300
     11 C16         32.0670     6.1790    11.4130 ca         1 3BP      -0.099500
     12 C17         32.0080     5.8810    12.7650 ca         1 3BP      -0.093500
     13 C22         30.9030     6.2600    13.5320 ca         1 3BP      -0.185900
     14 C23         29.8550     6.9340    12.9070 ca         1 3BP      -0.093500
     15 C24         29.9130     7.2250    11.5480 ca         1 3BP      -0.099500
     16 C25         31.0190     6.8570    10.7870 ca         1 3BP      -0.106300
     17 N1          31.3140     4.8330    15.4950 n2         1 3BP      -0.856100
     18 C2          36.7700     9.7270     5.4170 c          1 3BP       0.596100
     19 O2          37.0350     8.7760     4.6800 o          1 3BP      -0.606100
     20 N3          36.9380    11.0050     5.0290 nt         1 3BP      -0.609000
     21 C1          38.1140     7.4910    11.3320 c3         1 3BP      -0.022100
     22 N4          36.4160     5.8240    11.9650 n7         1 3BP      -0.904300
     23 C5          36.9260     6.6350    10.8620 c3         1 3BP       0.163500
     24 O4          35.1010     4.3500    10.3630 o          1 3BP      -0.547500
     25 O3          34.9260     4.0570    12.8340 o          1 3BP      -0.547500
     26 C9          37.1140     3.2360    11.5930 c3         1 3BP      -0.301400
     27 C8          37.8950     3.1360    12.8920 c3         1 3BP      -0.065100
     28 N2          30.2760     6.8610    15.7820 nv         1 3BP      -1.082200
     29 C11         39.9890     5.8460    10.9730 ca         1 3BP      -0.106000
     30 C7          39.2480     6.6460    11.8440 ca         1 3BP      -0.077300
     31 C3          39.5610     6.6030    13.2010 ca         1 3BP      -0.106000
     32 C4          40.5710     5.7770    13.6770 ca         1 3BP      -0.099000
     33 C13         41.3020     4.9600    12.8100 cp         1 3BP      -0.029000
     34 C6          40.9950     5.0160    11.4450 ca         1 3BP      -0.099000
     35 C12         44.4990     2.9480    13.0510 ca         1 3BP      -0.110500
     36 C10         43.5160     3.8060    12.5750 ca         1 3BP      -0.098500
     37 C21         42.3550     4.0540    13.3180 cp         1 3BP      -0.040000
     38 C27         42.2130     3.4130    14.5540 ca         1 3BP      -0.098500
     39 C14         43.1960     2.5540    15.0310 ca         1 3BP      -0.110500
     40 C29         44.3440     2.3170    14.2820 ca         1 3BP      -0.104000
     41 H17         36.1330     6.7720     8.4610 hn         1 3BP       0.335500
     42 H18         34.4490     9.1570     8.8420 h1         1 3BP       0.075700
     43 H191        34.2030     9.0240     6.3350 hc         1 3BP       0.076700
     44 H192        35.2920     7.6450     6.3320 hc         1 3BP       0.076700
     45 H201        37.0680     9.0990     7.4080 hc         1 3BP       0.058700
     46 H202        35.9790    10.4760     7.2830 hc         1 3BP       0.058700
     47 H31         32.4860     8.7840     9.4880 hn         1 3BP       0.317500
     48 H321        31.0780     6.3050     8.7060 h1         1 3BP       0.069700
     49 H322        30.2370     7.8200     9.0390 h1         1 3BP       0.069700
     50 H16         32.9450     5.8920    10.8470 ha         1 3BP       0.119500
     51 H1          32.8400     5.3620    13.2230 ha         1 3BP       0.128000
     52 H23         28.9800     7.2290    13.4730 ha         1 3BP       0.128000
     53 H24         29.0900     7.7500    11.0780 ha         1 3BP       0.119500
     54 HN1         31.6660     4.2270    14.7610 hn         1 3BP       0.394400
     55 HN31        37.3250    11.2030     4.1180 hn         1 3BP       0.316000
     56 HN32        36.7350    11.7760     5.6430 hn         1 3BP       0.316000
     57 H11A        37.7670     8.1720    12.1100 hc         1 3BP       0.064700
     58 H12A        38.4400     8.0960    10.4820 hc         1 3BP       0.064700
     59 HN4         35.9320     6.3310    12.6980 hn         1 3BP       0.513000
     60 H5          37.2710     5.9570    10.0840 h1         1 3BP       0.066700
     61 H91         37.7320     3.5820    10.7630 h1         1 3BP       0.096200
     62 H92         36.6560     2.2870    11.3090 h1         1 3BP       0.096200
     63 H81         37.2580     2.7950    13.7070 hc         1 3BP       0.052700
     64 H82         38.7010     2.4120    12.7600 hc         1 3BP       0.052700
     65 H83         38.3390     4.0920    13.1600 hc         1 3BP       0.052700
     66 HN21        30.0510     7.7780    15.4410 hn         1 3BP       0.488500
     67 HN22        30.2120     6.6880    16.7730 hn         1 3BP       0.488500
     68 H11         39.7640     5.8560     9.9130 ha         1 3BP       0.112500
     69 H3          39.0040     7.2200    13.8950 ha         1 3BP       0.112500
     70 H4          40.7970     5.7740    14.7360 ha         1 3BP       0.118000
     71 H6          41.5300     4.3860    10.7470 ha         1 3BP       0.118000
     72 H12         45.3910     2.7770    12.4610 ha         1 3BP       0.114500
     73 H10         43.6590     4.3020    11.6230 ha         1 3BP       0.113500
     74 H27         41.3160     3.5710    15.1390 ha         1 3BP       0.113500
     75 H14         43.0600     2.0620    15.9860 ha         1 3BP       0.114500
     76 H29         45.1100     1.6470    14.6520 ha         1 3BP       0.115000
     77 C26         30.8580     5.9270    14.9870 ce         1 3BP       0.680800
     78 S1          35.7310     4.3640    11.6680 s6         1 3BP       1.201100
@<TRIPOS>BOND
     1     1     2 2   
     2     1     3 1   
     3     1    23 1   
     4     3     4 1   
     5     3    41 1   
     6     4     5 1   
     7     4     7 1   
     8     4    42 1   
     9     5     6 1   
    10     5    43 1   
    11     5    44 1   
    12     6    18 1   
    13     6    45 1   
    14     6    46 1   
    15     7     8 2   
    16     7     9 1   
    17     9    10 1   
    18     9    47 1   
    19    10    16 1   
    20    10    48 1   
    21    10    49 1   
    22    11    12 ar  
    23    11    16 ar  
    24    11    50 1   
    25    12    13 ar  
    26    12    51 1   
    27    13    14 ar  
    28    13    77 1   
    29    14    15 ar  
    30    14    52 1   
    31    15    16 ar  
    32    15    53 1   
    33    17    54 1   
    34    17    77 2   
    35    18    19 2   
    36    18    20 1   
    37    20    55 1   
    38    20    56 1   
    39    21    23 1   
    40    21    30 1   
    41    21    57 1   
    42    21    58 1   
    43    22    23 1   
    44    22    59 1   
    45    22    78 1   
    46    23    60 1   
    47    24    78 2   
    48    25    78 2   
    49    26    27 1   
    50    26    61 1   
    51    26    62 1   
    52    26    78 1   
    53    27    63 1   
    54    27    64 1   
    55    27    65 1   
    56    28    66 1   
    57    28    67 1   
    58    28    77 1   
    59    29    30 ar  
    60    29    34 ar  
    61    29    68 1   
    62    30    31 ar  
    63    31    32 ar  
    64    31    69 1   
    65    32    33 ar  
    66    32    70 1   
    67    33    34 ar  
    68    33    37 1   
    69    34    71 1   
    70    35    36 ar  
    71    35    40 ar  
    72    35    72 1   
    73    36    37 ar  
    74    36    73 1   
    75    37    38 ar  
    76    38    39 ar  
    77    38    74 1   
    78    39    40 ar  
    79    39    75 1   
    80    40    76 1   
@<TRIPOS>SUBSTRUCTURE
     1 3BP         1 TEMP              0 ****  ****    0 ROOT
