@<TRIPOS>MOLECULE
3BP
   78    80     1     0     0
SMALL
No Charge or Current Charge


@<TRIPOS>ATOM
      1 C15         36.6090     7.7590    11.0520 c          1 3BP       0.567100
      2 O1          36.3830     8.8930    11.4580 o          1 3BP      -0.608100
      3 N17         35.8570     7.1760    10.0490 ns         1 3BP      -0.480900
      4 C18         34.7230     7.8220     9.3490 c3         1 3BP       0.034700
      5 C19         35.1850     8.5000     8.0290 c3         1 3BP      -0.072400
      6 C20         36.2480     9.6160     8.2100 c3         1 3BP      -0.157400
      7 C28         33.6030     6.7750     9.0790 c          1 3BP       0.573100
      8 O30         33.7900     5.5660     9.1470 o          1 3BP      -0.581100
      9 N31         32.3710     7.3050     8.7560 ns         1 3BP      -0.494900
     10 C32         31.1670     6.5160     8.4930 c3         1 3BP       0.145300
     11 C16         30.5280     5.4220    10.6940 ca         1 3BP      -0.099500
     12 C17         29.7200     5.3290    11.8410 ca         1 3BP      -0.093500
     13 C22         28.6630     6.2450    12.0570 ca         1 3BP      -0.185900
     14 C23         28.4200     7.2330    11.0730 ca         1 3BP      -0.093500
     15 C24         29.2300     7.3220     9.9270 ca         1 3BP      -0.099500
     16 C25         30.2890     6.4190     9.7320 ca         1 3BP      -0.106300
     17 N1          27.6370     5.0570    13.9240 n2         1 3BP      -0.856100
     18 C2          36.5580    10.3120     6.8820 c          1 3BP       0.596100
     19 O2          37.3340     9.8640     6.0560 o          1 3BP      -0.606100
     20 N3          35.9170    11.4780     6.6570 nt         1 3BP      -0.609000
     21 C1          39.1340     7.4030    11.2240 c3         1 3BP      -0.022100
     22 N4          37.7000     6.7620    13.1450 n7         1 3BP      -0.904300
     23 C5          37.7480     6.8640    11.6520 c3         1 3BP       0.163500
     24 O4          35.2460     6.2380    13.2800 o          1 3BP      -0.547500
     25 O3          36.7470     6.0050    15.3200 o          1 3BP      -0.547500
     26 C9          36.9530     4.1640    13.4030 c3         1 3BP      -0.301400
     27 C8          38.3880     3.7380    13.8040 c3         1 3BP      -0.065100
     28 N2          27.2290     7.2430    13.7540 nv         1 3BP      -1.082200
     29 C11         40.4940     5.3150    10.7180 ca         1 3BP      -0.106000
     30 C7          40.2650     6.4300    11.5440 ca         1 3BP      -0.077300
     31 C3          41.0770     6.6250    12.6760 ca         1 3BP      -0.106000
     32 C4          42.1000     5.7110    12.9820 ca         1 3BP      -0.099000
     33 C13         42.3420     4.5800    12.1640 cp         1 3BP      -0.029000
     34 C6          41.5190     4.4030    11.0240 ca         1 3BP      -0.099000
     35 C12         45.1910     2.0400    11.7810 ca         1 3BP      -0.110500
     36 C10         44.1710     2.9580    11.4710 ca         1 3BP      -0.098500
     37 C21         43.4290     3.6030    12.4940 cp         1 3BP      -0.040000
     38 C27         43.7500     3.2900    13.8400 ca         1 3BP      -0.098500
     39 C14         44.7680     2.3720    14.1500 ca         1 3BP      -0.110500
     40 C29         45.4900     1.7470    13.1210 ca         1 3BP      -0.104000
     41 H17         36.0700     6.2130     9.8100 hn         1 3BP       0.335500
     42 H18         34.2870     8.5850    10.0070 h1         1 3BP       0.075700
     43 H191        34.3090     8.9320     7.5270 hc         1 3BP       0.076700
     44 H192        35.5810     7.7330     7.3510 hc         1 3BP       0.076700
     45 H201        37.1730     9.1720     8.5970 hc         1 3BP       0.058700
     46 H202        35.8480    10.3460     8.9230 hc         1 3BP       0.058700
     47 H31         32.2940     8.3150     8.7360 hn         1 3BP       0.317500
     48 H321        31.4450     5.5090     8.1530 h1         1 3BP       0.069700
     49 H322        30.6060     6.9920     7.6770 h1         1 3BP       0.069700
     50 H16         31.3450     4.7160    10.5550 ha         1 3BP       0.119500
     51 H1          29.9360     4.5500    12.5690 ha         1 3BP       0.128000
     52 H23         27.5940     7.9330    11.1860 ha         1 3BP       0.128000
     53 H24         29.0270     8.0940     9.1880 ha         1 3BP       0.119500
     54 HN1         28.0710     4.2960    13.3860 hn         1 3BP       0.394400
     55 HN31        36.0880    11.9770     5.7960 hn         1 3BP       0.316000
     56 HN32        35.2770    11.8460     7.3450 hn         1 3BP       0.316000
     57 H11A        39.3110     8.3760    11.7000 hc         1 3BP       0.064700
     58 H12A        39.1190     7.5960    10.1440 hc         1 3BP       0.064700
     59 HN4         37.4800     7.6800    13.5290 hn         1 3BP       0.513000
     60 H5          37.6470     5.8670    11.2040 h1         1 3BP       0.066700
     61 H91         36.8180     4.1010    12.3190 h1         1 3BP       0.096200
     62 H92         36.2140     3.5190    13.8910 h1         1 3BP       0.096200
     63 H81         38.5310     3.8070    14.8890 hc         1 3BP       0.052700
     64 H82         38.5750     2.7000    13.5020 hc         1 3BP       0.052700
     65 H83         39.1400     4.3690    13.3170 hc         1 3BP       0.052700
     66 HN21        27.7260     8.0940    13.5200 hn         1 3BP       0.488500
     67 HN22        26.9450     7.1560    14.7220 hn         1 3BP       0.488500
     68 H11         39.8720     5.1470     9.8420 ha         1 3BP       0.112500
     69 H3          40.9080     7.4790    13.3270 ha         1 3BP       0.112500
     70 H4          42.7170     5.8900    13.8590 ha         1 3BP       0.118000
     71 H6          41.6620     3.5400    10.3780 ha         1 3BP       0.118000
     72 H12         45.7500     1.5590    10.9810 ha         1 3BP       0.114500
     73 H10         43.9650     3.1800    10.4270 ha         1 3BP       0.113500
     74 H27         43.1950     3.7520    14.6520 ha         1 3BP       0.113500
     75 H14         44.9960     2.1440    15.1890 ha         1 3BP       0.114500
     76 H29         46.2780     1.0370    13.3610 ha         1 3BP       0.115000
     77 C26         27.7750     6.1240    13.2550 ce         1 3BP       0.680800
     78 S1          36.5210     5.8500    13.8820 s6         1 3BP       1.201100
@<TRIPOS>BOND
     1     1     2 2   
     2     1     3 1   
     3     1    23 1   
     4     3     4 1   
     5     3    41 1   
     6     4     5 1   
     7     4     7 1   
     8     4    42 1   
     9     5     6 1   
    10     5    43 1   
    11     5    44 1   
    12     6    18 1   
    13     6    45 1   
    14     6    46 1   
    15     7     8 2   
    16     7     9 1   
    17     9    10 1   
    18     9    47 1   
    19    10    16 1   
    20    10    48 1   
    21    10    49 1   
    22    11    12 ar  
    23    11    16 ar  
    24    11    50 1   
    25    12    13 ar  
    26    12    51 1   
    27    13    14 ar  
    28    13    77 1   
    29    14    15 ar  
    30    14    52 1   
    31    15    16 ar  
    32    15    53 1   
    33    17    54 1   
    34    17    77 2   
    35    18    19 2   
    36    18    20 1   
    37    20    55 1   
    38    20    56 1   
    39    21    23 1   
    40    21    30 1   
    41    21    57 1   
    42    21    58 1   
    43    22    23 1   
    44    22    59 1   
    45    22    78 1   
    46    23    60 1   
    47    24    78 2   
    48    25    78 2   
    49    26    27 1   
    50    26    61 1   
    51    26    62 1   
    52    26    78 1   
    53    27    63 1   
    54    27    64 1   
    55    27    65 1   
    56    28    66 1   
    57    28    67 1   
    58    28    77 1   
    59    29    30 ar  
    60    29    34 ar  
    61    29    68 1   
    62    30    31 ar  
    63    31    32 ar  
    64    31    69 1   
    65    32    33 ar  
    66    32    70 1   
    67    33    34 ar  
    68    33    37 1   
    69    34    71 1   
    70    35    36 ar  
    71    35    40 ar  
    72    35    72 1   
    73    36    37 ar  
    74    36    73 1   
    75    37    38 ar  
    76    38    39 ar  
    77    38    74 1   
    78    39    40 ar  
    79    39    75 1   
    80    40    76 1   
@<TRIPOS>SUBSTRUCTURE
     1 3BP         1 TEMP              0 ****  ****    0 ROOT
