@<TRIPOS>MOLECULE
3BQ
   50    52     1     0     0
SMALL
bcc


@<TRIPOS>ATOM
      1 O           -0.3580    -1.5350     0.0050 o          1 3BQ      -0.621100
      2 C4          -0.3520    -0.3410    -0.2580 c          1 3BQ       0.797100
      3 N2          -1.4960     0.4190    -0.3950 ns         1 3BQ      -0.491100
      4 C5          -2.8180     0.0370    -0.2300 ca         1 3BQ       0.122600
      5 C13         -3.7650     1.0400    -0.1610 ca         1 3BQ      -0.214000
      6 C12         -5.1300     0.7390    -0.0220 ca         1 3BQ       0.025000
      7 C11         -6.1440     1.7220     0.0560 ca         1 3BQ      -0.242300
      8 C10         -7.4450     1.3290     0.1960 ca         1 3BQ       0.395200
      9 N3          -7.8420     0.0370     0.2670 nb         1 3BQ      -0.673000
     10 C9          -6.9180    -0.8840     0.1960 ca         1 3BQ       0.438200
     11 C8          -5.5400    -0.6120     0.0530 ca         1 3BQ      -0.192300
     12 C7          -4.5610    -1.6240    -0.0250 ca         1 3BQ      -0.075000
     13 C6          -3.2370    -1.3210    -0.1650 ca         1 3BQ      -0.146000
     14 N1           0.7850     0.3620    -0.4360 ns         1 3BQ      -0.593900
     15 C3           2.0880    -0.2690    -0.3750 c3         1 3BQ       0.118000
     16 C2           3.1720     0.8000    -0.3600 c3         1 3BQ      -0.092400
     17 C1           4.6110     0.3050    -0.1260 c6         1 3BQ      -0.028000
     18 C            5.5450     1.5130    -0.3300 c3         1 3BQ       0.153800
     19 N            5.2810     2.6060     0.5940 n8         1 3BQ      -0.889800
     20 C18          4.9870    -0.7780    -1.1510 c6         1 3BQ      -0.068400
     21 C17          6.3540    -1.4110    -0.8990 c6         1 3BQ      -0.072400
     22 C16          6.4430    -1.9700     0.5170 c6         1 3BQ      -0.076400
     23 C15          6.1210    -0.9010     1.5560 c6         1 3BQ      -0.072400
     24 C14          4.7590    -0.2630     1.2940 c6         1 3BQ      -0.068400
     25 H1          -1.3640     1.4100    -0.5270 hn         1 3BQ       0.309500
     26 H2          -3.4590     2.0790    -0.2140 ha         1 3BQ       0.129000
     27 H3          -5.8950     2.7740     0.0050 ha         1 3BQ       0.138000
     28 H4          -8.2340     2.0700     0.2570 h4         1 3BQ       0.016100
     29 H5          -7.2450    -1.9190     0.2550 h4         1 3BQ       0.017100
     30 H6          -4.8660    -2.6620     0.0240 ha         1 3BQ       0.138000
     31 H7          -2.5130    -2.1150    -0.2280 ha         1 3BQ       0.171000
     32 H8           0.7440     1.3250    -0.7310 hn         1 3BQ       0.308500
     33 H9           2.1440    -0.8830     0.5250 h1         1 3BQ       0.056200
     34 H10          2.2190    -0.9430    -1.2260 h1         1 3BQ       0.056200
     35 H11          3.1420     1.3450    -1.3120 hc         1 3BQ       0.043200
     36 H12          2.9240     1.5240     0.4230 hc         1 3BQ       0.043200
     37 H13          6.5800     1.2060    -0.1810 h1         1 3BQ       0.029700
     38 H14          5.4690     1.8160    -1.3860 h1         1 3BQ       0.029700
     39 H15          6.0530     3.2590     0.5630 hn         1 3BQ       0.336300
     40 H16          4.4720     3.1310     0.2900 hn         1 3BQ       0.336300
     41 H18          4.2440    -1.5820    -1.1210 hc         1 3BQ       0.044700
     42 H19          4.9400    -0.3590    -2.1620 hc         1 3BQ       0.044700
     43 H20          6.5240    -2.2050    -1.6300 hc         1 3BQ       0.038950
     44 H21          7.1540    -0.6810    -1.0580 hc         1 3BQ       0.038950
     45 H22          5.7270    -2.7940     0.6210 hc         1 3BQ       0.039200
     46 H23          7.4340    -2.3940     0.6980 hc         1 3BQ       0.039200
     47 H24          6.1260    -1.3390     2.5580 hc         1 3BQ       0.038950
     48 H25          6.9070    -0.1390     1.5600 hc         1 3BQ       0.038950
     49 H26          4.5690     0.5300     2.0200 hc         1 3BQ       0.044700
     50 H27          3.9930    -1.0280     1.4600 hc         1 3BQ       0.044700
@<TRIPOS>BOND
     1     1     2 2   
     2     2     3 1   
     3     2    14 1   
     4     3     4 1   
     5     3    25 1   
     6     4     5 ar  
     7     4    13 ar  
     8     5     6 ar  
     9     5    26 1   
    10     6     7 ar  
    11     6    11 ar  
    12     7     8 ar  
    13     7    27 1   
    14     8     9 ar  
    15     8    28 1   
    16     9    10 ar  
    17    10    11 ar  
    18    10    29 1   
    19    11    12 ar  
    20    12    13 ar  
    21    12    30 1   
    22    13    31 1   
    23    14    15 1   
    24    14    32 1   
    25    15    16 1   
    26    15    33 1   
    27    15    34 1   
    28    16    17 1   
    29    16    35 1   
    30    16    36 1   
    31    17    18 1   
    32    17    20 1   
    33    17    24 1   
    34    18    19 1   
    35    18    37 1   
    36    18    38 1   
    37    19    39 1   
    38    19    40 1   
    39    20    21 1   
    40    20    41 1   
    41    20    42 1   
    42    21    22 1   
    43    21    43 1   
    44    21    44 1   
    45    22    23 1   
    46    22    45 1   
    47    22    46 1   
    48    23    24 1   
    49    23    47 1   
    50    23    48 1   
    51    24    49 1   
    52    24    50 1   
@<TRIPOS>SUBSTRUCTURE
     1 3BQ         1 TEMP              0 ****  ****    0 ROOT
