@<TRIPOS>MOLECULE
3BQ
   50    52     1     0     0
SMALL
No Charge or Current Charge


@<TRIPOS>ATOM
      1 O           -0.3980    -1.7400     0.1200 o          1 3BQ      -0.621100
      2 C4          -0.4160    -0.5260    -0.0230 c          1 3BQ       0.663100
      3 N2          -1.5550     0.2560    -0.1120 ns         1 3BQ      -0.165000
      4 C5          -2.9380    -0.0650    -0.0710 ca         1 3BQ       0.030000
      5 C13         -3.8530     0.9980    -0.1950 ca         1 3BQ      -0.196000
      6 C12         -5.2370     0.7570    -0.1620 ca         1 3BQ       0.025000
      7 C11         -6.1660     1.8020    -0.2840 ca         1 3BQ      -0.159000
      8 C10         -7.5380     1.5030    -0.2450 ca         1 3BQ       0.329900
      9 N3          -8.0160     0.2460    -0.0950 nb         1 3BQ      -0.673000
     10 C9          -7.1160    -0.7610     0.0220 ca         1 3BQ       0.372900
     11 C8          -5.7230    -0.5520    -0.0060 ca         1 3BQ      -0.127000
     12 C7          -4.8190    -1.6220     0.1190 ca         1 3BQ      -0.057000
     13 C6          -3.4340    -1.3800     0.0870 ca         1 3BQ      -0.128000
     14 N1           0.7380     0.2150    -0.1130 ns         1 3BQ      -0.526900
     15 C3           2.0850    -0.3530    -0.0500 c3         1 3BQ       0.118000
     16 C2           3.1670     0.7480    -0.1580 c3         1 3BQ      -0.092400
     17 C1           4.6770     0.2960    -0.0770 c6         1 3BQ      -0.028000
     18 C            5.5520     1.5940    -0.2960 c3         1 3BQ       0.153800
     19 N            5.3650     2.6750     0.6990 n8         1 3BQ      -1.000200
     20 C18          4.9960    -0.7400    -1.2100 c6         1 3BQ      -0.068400
     21 C17          6.4390    -1.3070    -1.1350 c6         1 3BQ      -0.072400
     22 C16          6.7240    -1.9320     0.2530 c6         1 3BQ      -0.076400
     23 C15          6.4360    -0.9300     1.3970 c6         1 3BQ      -0.072400
     24 C14          4.9890    -0.3750     1.3060 c6         1 3BQ      -0.068400
     25 H1          -1.3730     1.2430    -0.2290 hn         1 3BQ       0.143000
     26 H2          -3.4870     2.0150    -0.3160 ha         1 3BQ       0.111000
     27 H3          -5.8390     2.8300    -0.4070 ha         1 3BQ       0.120000
     28 H4          -8.2800     2.2960    -0.3370 h4         1 3BQ       0.016100
     29 H5          -7.5280    -1.7620     0.1420 h4         1 3BQ       0.017100
     30 H6          -5.1860    -2.6400     0.2410 ha         1 3BQ       0.120000
     31 H7          -2.7640    -2.2280     0.1860 ha         1 3BQ       0.153000
     32 H8           0.6380     1.2150    -0.2320 hn         1 3BQ       0.308500
     33 H9           2.1870    -0.8920     0.9010 h1         1 3BQ       0.056200
     34 H10          2.1910    -1.0730    -0.8710 h1         1 3BQ       0.056200
     35 H11          3.0020     1.2800    -1.1030 hc         1 3BQ       0.043200
     36 H12          2.9590     1.4740     0.6370 hc         1 3BQ       0.043200
     37 H13          6.6170     1.3330    -0.2960 h1         1 3BQ       0.029700
     38 H14          5.3200     2.0070    -1.2880 h1         1 3BQ       0.029700
     39 H15          5.9070     3.4970     0.4070 hn         1 3BQ       0.391500
     40 H16          4.3920     2.9980     0.6580 hn         1 3BQ       0.391500
     41 H18          4.3040    -1.5910    -1.1520 hc         1 3BQ       0.044700
     42 H19          4.8320    -0.2840    -2.1960 hc         1 3BQ       0.044700
     43 H20          6.5740    -2.0710    -1.9130 hc         1 3BQ       0.038950
     44 H21          7.1760    -0.5230    -1.3540 hc         1 3BQ       0.038950
     45 H22          6.1030    -2.8290     0.3860 hc         1 3BQ       0.039200
     46 H23          7.7690    -2.2670     0.3040 hc         1 3BQ       0.039200
     47 H24          6.5780    -1.4290     2.3650 hc         1 3BQ       0.038950
     48 H25          7.1640    -0.1090     1.3700 hc         1 3BQ       0.038950
     49 H26          4.8150     0.3350     2.1260 hc         1 3BQ       0.044700
     50 H27          4.2980    -1.2090     1.4840 hc         1 3BQ       0.044700
@<TRIPOS>BOND
     1     1     2 2   
     2     2     3 1   
     3     2    14 1   
     4     3     4 1   
     5     3    25 1   
     6     4     5 ar  
     7     4    13 ar  
     8     5     6 ar  
     9     5    26 1   
    10     6     7 ar  
    11     6    11 ar  
    12     7     8 ar  
    13     7    27 1   
    14     8     9 ar  
    15     8    28 1   
    16     9    10 ar  
    17    10    11 ar  
    18    10    29 1   
    19    11    12 ar  
    20    12    13 ar  
    21    12    30 1   
    22    13    31 1   
    23    14    15 1   
    24    14    32 1   
    25    15    16 1   
    26    15    33 1   
    27    15    34 1   
    28    16    17 1   
    29    16    35 1   
    30    16    36 1   
    31    17    18 1   
    32    17    20 1   
    33    17    24 1   
    34    18    19 1   
    35    18    37 1   
    36    18    38 1   
    37    19    39 1   
    38    19    40 1   
    39    20    21 1   
    40    20    41 1   
    41    20    42 1   
    42    21    22 1   
    43    21    43 1   
    44    21    44 1   
    45    22    23 1   
    46    22    45 1   
    47    22    46 1   
    48    23    24 1   
    49    23    47 1   
    50    23    48 1   
    51    24    49 1   
    52    24    50 1   
@<TRIPOS>SUBSTRUCTURE
     1 3BQ         1 TEMP              0 ****  ****    0 ROOT
