@<TRIPOS>MOLECULE
3BR
   11    10     1     0     0
SMALL
abcg2


@<TRIPOS>ATOM
      1 BR1          0.0190    -0.0270    -1.0640 br         1 3BR      -0.283000
      2 C1          -0.6240    -0.0020     0.8030 c3         1 3BR       0.096600
      3 C2           0.5230    -0.0070     1.7890 c3         1 3BR      -0.078400
      4 C3          -0.0110     0.0200     3.2180 c3         1 3BR      -0.094100
      5 H11         -1.2600    -0.8800     0.9140 h1         1 3BR       0.069700
      6 H12         -1.2400     0.8910     0.8980 h1         1 3BR       0.069700
      7 H21          1.1650     0.8590     1.6200 hc         1 3BR       0.054700
      8 H22          1.1390    -0.8960     1.6420 hc         1 3BR       0.054700
      9 H31          0.8130     0.0140     3.9320 hc         1 3BR       0.036367
     10 H32         -0.6060     0.9140     3.4050 hc         1 3BR       0.036367
     11 H33         -0.6370    -0.8490     3.4270 hc         1 3BR       0.036367
@<TRIPOS>BOND
     1     1     2 1   
     2     2     3 1   
     3     2     5 1   
     4     2     6 1   
     5     3     4 1   
     6     3     7 1   
     7     3     8 1   
     8     4     9 1   
     9     4    10 1   
    10     4    11 1   
@<TRIPOS>SUBSTRUCTURE
     1 3BR         1 TEMP              0 ****  ****    0 ROOT
