@<TRIPOS>MOLECULE
3BR
   11    10     1     0     0
SMALL
No Charge or Current Charge


@<TRIPOS>ATOM
      1 Br1          0.0560    -0.0330    -1.1000 br         1 3BR      -0.283000
      2 C1          -0.6430    -0.0010     0.7650 c3         1 3BR       0.096600
      3 C2           0.5020    -0.0060     1.7960 c3         1 3BR      -0.078400
      4 C3           0.0010     0.0190     3.2530 c3         1 3BR      -0.094100
      5 H11         -1.2800    -0.8880     0.8830 h1         1 3BR       0.069700
      6 H12         -1.2540     0.9050     0.8620 h1         1 3BR       0.069700
      7 H21          1.1460     0.8650     1.6230 hc         1 3BR       0.054700
      8 H22          1.1210    -0.8990     1.6430 hc         1 3BR       0.054700
      9 H31          0.8480     0.0150     3.9500 hc         1 3BR       0.036367
     10 H32         -0.5950     0.9190     3.4440 hc         1 3BR       0.036367
     11 H33         -0.6210    -0.8600     3.4640 hc         1 3BR       0.036367
@<TRIPOS>BOND
     1     1     2 1   
     2     2     3 1   
     3     2     5 1   
     4     2     6 1   
     5     3     4 1   
     6     3     7 1   
     7     3     8 1   
     8     4     9 1   
     9     4    10 1   
    10     4    11 1   
@<TRIPOS>SUBSTRUCTURE
     1 3BR         1 TEMP              0 ****  ****    0 ROOT
