@<TRIPOS>MOLECULE
3BS
   51    52     1     0     0
SMALL
No Charge or Current Charge


@<TRIPOS>ATOM
      1 CAQ         -4.0740    -0.5450     1.1530 c6         1 3BS      -0.110400
      2 CAR         -5.5600    -0.0610     1.0530 c6         1 3BS       0.184700
      3 CAS         -5.7420     1.3320     1.7460 c3         1 3BS      -0.085850
      4 CAH         -6.4670    -1.0210     1.9020 c3         1 3BS      -0.085850
      5 NAX         -6.0050    -0.0410    -0.3930 n3         1 3BS      -0.465100
      6 OAY         -6.1400    -1.4440    -0.8620 oh         1 3BS      -0.486300
      7 CAW         -5.0290     0.6930    -1.4030 c6         1 3BS       0.184700
      8 CAV         -5.0620     2.2830    -1.3120 c3         1 3BS      -0.085850
      9 CAZ         -5.4080     0.4350    -2.9320 c3         1 3BS      -0.085850
     10 CAU         -3.5270     0.2120    -1.2150 c6         1 3BS      -0.110400
     11 CAP         -3.0870     0.2710     0.2720 c6         1 3BS       0.112700
     12 NAO         -1.7270    -0.2670     0.4180 ns         1 3BS      -0.437900
     13 CAN         -0.5570     0.4110     0.2250 cs         1 3BS       0.481400
     14 SAT         -0.4970     2.0220    -0.2240 s          1 3BS      -0.639400
     15 NAM          0.5260    -0.4110     0.3770 ns         1 3BS      -0.383100
     16 CAL          1.9300    -0.2000     0.3530 ca         1 3BS       0.130600
     17 CAF          2.7740    -1.2840     0.0230 ca         1 3BS       0.060000
     18 CAE          4.1700    -1.1220     0.0020 ca         1 3BS       0.005000
     19 ClAG         2.0940    -2.8640    -0.3790 cl         1 3BS      -0.193000
     20 CAK          2.5120     1.0390     0.6930 ca         1 3BS      -0.107000
     21 CAJ          3.9080     1.2040     0.6730 ca         1 3BS       0.015000
     22 CAD          4.7430     0.1240     0.3250 ca         1 3BS      -0.274500
     23 SAC          6.5240     0.3310     0.2990 sy         1 3BS       1.132600
     24 OAI          6.9280     1.4940     1.0840 o          1 3BS      -0.543000
     25 OAA          7.2000    -0.9590     0.4070 o          1 3BS      -0.543000
     26 NAB          6.8150     0.7870    -1.2380 n8         1 3BS      -1.005100
     27 HAQ         -3.7460    -0.4980     2.2010 hc         1 3BS       0.057700
     28 HAQA        -4.0150    -1.6050     0.8700 hc         1 3BS       0.057700
     29 HAS         -4.9660     2.0540     1.4880 hc         1 3BS       0.043367
     30 HASA        -6.7120     1.7760     1.4940 hc         1 3BS       0.043367
     31 HASB        -5.6980     1.2480     2.8390 hc         1 3BS       0.043367
     32 HAH         -6.2060    -0.9890     2.9670 hc         1 3BS       0.043367
     33 HAHA        -7.5260    -0.7490     1.8140 hc         1 3BS       0.043367
     34 HAHB        -6.3680    -2.0690     1.5970 hc         1 3BS       0.043367
     35 HOAY        -7.0950    -1.5400    -1.0890 ho         1 3BS       0.453000
     36 HAV         -4.4940     2.6800    -0.4680 hc         1 3BS       0.043367
     37 HAVA        -4.6210     2.7540    -2.1980 hc         1 3BS       0.043367
     38 HAVB        -6.0920     2.6490    -1.2270 hc         1 3BS       0.043367
     39 HAZ         -6.4330     0.7600    -3.1440 hc         1 3BS       0.043367
     40 HAZA        -4.7410     0.9720    -3.6190 hc         1 3BS       0.043367
     41 HAZB        -5.3360    -0.6250    -3.2010 hc         1 3BS       0.043367
     42 HAU         -3.4210    -0.8190    -1.5800 hc         1 3BS       0.057700
     43 HAUA        -2.8540     0.8230    -1.8310 hc         1 3BS       0.057700
     44 HAP         -3.0760     1.3150     0.6140 h1         1 3BS       0.104700
     45 HNAO        -1.6530    -1.2430     0.6780 hn         1 3BS       0.303500
     46 HNAM         0.2880    -1.3810     0.5380 hn         1 3BS       0.320500
     47 HAE          4.8000    -1.9690    -0.2650 ha         1 3BS       0.155000
     48 HAK          1.8960     1.8780     0.9950 ha         1 3BS       0.149000
     49 HAJ          4.3340     2.1720     0.9360 ha         1 3BS       0.145000
     50 HNAB         7.3520     1.6350    -1.0780 hn         1 3BS       0.477000
     51 HNAA         7.5410     0.1210    -1.4910 hn         1 3BS       0.477000
@<TRIPOS>BOND
     1     1     2 1   
     2     1    11 1   
     3     1    27 1   
     4     1    28 1   
     5     2     3 1   
     6     2     4 1   
     7     2     5 1   
     8     3    29 1   
     9     3    30 1   
    10     3    31 1   
    11     4    32 1   
    12     4    33 1   
    13     4    34 1   
    14     5     6 1   
    15     5     7 1   
    16     6    35 1   
    17     7     8 1   
    18     7     9 1   
    19     7    10 1   
    20     8    36 1   
    21     8    37 1   
    22     8    38 1   
    23     9    39 1   
    24     9    40 1   
    25     9    41 1   
    26    10    11 1   
    27    10    42 1   
    28    10    43 1   
    29    11    12 1   
    30    11    44 1   
    31    12    13 1   
    32    12    45 1   
    33    13    14 2   
    34    13    15 1   
    35    15    16 1   
    36    15    46 1   
    37    16    17 ar  
    38    16    20 ar  
    39    17    18 ar  
    40    17    19 1   
    41    18    22 ar  
    42    18    47 1   
    43    20    21 ar  
    44    20    48 1   
    45    21    22 ar  
    46    21    49 1   
    47    22    23 1   
    48    23    24 2   
    49    23    25 2   
    50    23    26 1   
    51    26    50 1   
    52    26    51 1   
@<TRIPOS>SUBSTRUCTURE
     1 3BS         1 TEMP              0 ****  ****    0 ROOT
