@<TRIPOS>MOLECULE
3BS
   51    52     1     0     0
SMALL
abcg2


@<TRIPOS>ATOM
      1 CAQ         -4.0080    -0.4060     1.2340 c6         1 3BS      -0.110400
      2 CAR         -5.4090     0.1970     1.0390 c6         1 3BS       0.184700
      3 CAS         -5.4410     1.6570     1.5090 c3         1 3BS      -0.085850
      4 CAH         -6.4080    -0.5570     1.9240 c3         1 3BS      -0.085850
      5 NAX         -5.8590     0.0930    -0.3720 n3         1 3BS      -0.465100
      6 OAY         -6.0790    -1.2850    -0.6120 oh         1 3BS      -0.486300
      7 CAW         -4.9030     0.5470    -1.4160 c6         1 3BS       0.184700
      8 CAV         -4.8390     2.0800    -1.4580 c3         1 3BS      -0.085850
      9 CAZ         -5.4360     0.1100    -2.7840 c3         1 3BS      -0.085850
     10 CAU         -3.5060    -0.0520    -1.1970 c6         1 3BS      -0.110400
     11 CAP         -3.0060     0.1510     0.2310 c6         1 3BS       0.112700
     12 NAO         -1.7210    -0.4960     0.4270 ns         1 3BS      -0.437900
     13 CAN         -0.5310     0.0690     0.2360 cs         1 3BS       0.481400
     14 SAT         -0.3280     1.6830    -0.1750 s          1 3BS      -0.639400
     15 NAM          0.5160    -0.7930     0.3870 ns         1 3BS      -0.383100
     16 CAL          1.8700    -0.4770     0.3350 ca         1 3BS       0.130600
     17 CAF          2.7360    -1.2660    -0.4230 ca         1 3BS       0.060000
     18 CAE          4.1000    -1.0230    -0.4500 ca         1 3BS       0.005000
     19 CLAG         2.1040    -2.5750    -1.3550 cl         1 3BS      -0.193000
     20 CAK          2.4090     0.5730     1.0810 ca         1 3BS      -0.107000
     21 CAJ          3.7610     0.8410     1.0500 ca         1 3BS       0.015000
     22 CAD          4.5970     0.0390     0.2820 ca         1 3BS      -0.274500
     23 SAC          6.3370     0.3670     0.2760 sy         1 3BS       1.132600
     24 OAI          6.7560     0.7440     1.6170 o          1 3BS      -0.543000
     25 OAA          6.9960    -0.7600    -0.3690 o          1 3BS      -0.543000
     26 NAB          6.3960     1.7500    -0.6200 n8         1 3BS      -1.005100
     27 HAQ         -3.6670    -0.2070     2.2540 hc         1 3BS       0.057700
     28 HAQA        -4.0630    -1.4950     1.1250 hc         1 3BS       0.057700
     29 HAS         -4.5990     2.2560     1.1720 hc         1 3BS       0.043367
     30 HASA        -6.3590     2.1490     1.1850 hc         1 3BS       0.043367
     31 HASB        -5.4170     1.6810     2.5990 hc         1 3BS       0.043367
     32 HAH         -6.1790    -0.3650     2.9730 hc         1 3BS       0.043367
     33 HAHA        -7.4280    -0.2120     1.7420 hc         1 3BS       0.043367
     34 HAHB        -6.3760    -1.6340     1.7760 hc         1 3BS       0.043367
     35 HOAY        -7.0160    -1.3340    -0.8280 ho         1 3BS       0.453000
     36 HAV         -4.2430     2.5280    -0.6690 hc         1 3BS       0.043367
     37 HAVA        -4.3830     2.3900    -2.3990 hc         1 3BS       0.043367
     38 HAVB        -5.8400     2.5100    -1.4170 hc         1 3BS       0.043367
     39 HAZ         -6.4600     0.4590    -2.9330 hc         1 3BS       0.043367
     40 HAZA        -4.8220     0.5520    -3.5700 hc         1 3BS       0.043367
     41 HAZB        -5.4150    -0.9690    -2.9230 hc         1 3BS       0.043367
     42 HAU         -3.5290    -1.1250    -1.4110 hc         1 3BS       0.057700
     43 HAUA        -2.7980     0.3970    -1.8980 hc         1 3BS       0.057700
     44 HAP         -2.8410     1.2120     0.4190 h1         1 3BS       0.104700
     45 HNAO        -1.7540    -1.4840     0.6390 hn         1 3BS       0.303500
     46 HNAM         0.2980    -1.7800     0.4220 hn         1 3BS       0.320500
     47 HAE          4.7490    -1.6530    -1.0430 ha         1 3BS       0.155000
     48 HAK          1.7570     1.1710     1.6990 ha         1 3BS       0.149000
     49 HAJ          4.1570     1.6570     1.6390 ha         1 3BS       0.145000
     50 HNAB         7.2510     2.2700    -0.4480 hn         1 3BS       0.477000
     51 HNAA         6.2760     1.5840    -1.6140 hn         1 3BS       0.477000
@<TRIPOS>BOND
     1     1     2 1   
     2     1    11 1   
     3     1    27 1   
     4     1    28 1   
     5     2     3 1   
     6     2     4 1   
     7     2     5 1   
     8     3    29 1   
     9     3    30 1   
    10     3    31 1   
    11     4    32 1   
    12     4    33 1   
    13     4    34 1   
    14     5     6 1   
    15     5     7 1   
    16     6    35 1   
    17     7     8 1   
    18     7     9 1   
    19     7    10 1   
    20     8    36 1   
    21     8    37 1   
    22     8    38 1   
    23     9    39 1   
    24     9    40 1   
    25     9    41 1   
    26    10    11 1   
    27    10    42 1   
    28    10    43 1   
    29    11    12 1   
    30    11    44 1   
    31    12    13 1   
    32    12    45 1   
    33    13    14 2   
    34    13    15 1   
    35    15    16 1   
    36    15    46 1   
    37    16    17 ar  
    38    16    20 ar  
    39    17    18 ar  
    40    17    19 1   
    41    18    22 ar  
    42    18    47 1   
    43    20    21 ar  
    44    20    48 1   
    45    21    22 ar  
    46    21    49 1   
    47    22    23 1   
    48    23    24 2   
    49    23    25 2   
    50    23    26 1   
    51    26    50 1   
    52    26    51 1   
@<TRIPOS>SUBSTRUCTURE
     1 3BS         1 TEMP              0 ****  ****    0 ROOT
