@<TRIPOS>MOLECULE
3BT
   36    36     1     0     0
SMALL
No Charge or Current Charge


@<TRIPOS>ATOM
      1 CA           0.0280    -0.0510     3.3200 c3         1 3BT       0.070600
      2 CB           0.3770    -1.1190     2.2680 c3         1 3BT      -0.022100
      3 N1          -1.9150     0.1980     6.8850 nv         1 3BT      -1.038700
      4 N2          -0.8310     1.7440     5.6300 n2         1 3BT      -0.848100
      5 C           -1.2290     0.5630     5.7980 c2         1 3BT       0.675600
      6 S           -0.9210    -0.8060     4.7190 ss         1 3BT      -0.380200
      7 C3           1.1940     0.5600    -1.0890 ca         1 3BT      -0.082800
      8 C2           0.4790     0.0080    -0.0080 ca         1 3BT      -0.097000
      9 C1           1.1590    -0.5320     1.1000 ca         1 3BT      -0.082800
     10 C6           2.5660    -0.5170     1.1240 ca         1 3BT      -0.103000
     11 C5           3.2850     0.0300     0.0470 ca         1 3BT      -0.106000
     12 C4           2.6010     0.5660    -1.0560 ca         1 3BT      -0.103000
     13 CC           0.1500     0.0610    -3.3480 c3         1 3BT       0.070600
     14 N3          -1.6220    -0.2660    -6.9710 nv         1 3BT      -1.038700
     15 N4          -0.5910    -1.7690    -5.5990 n2         1 3BT      -0.848100
     16 C7          -0.9770    -0.5980    -5.8460 c2         1 3BT       0.675600
     17 S1          -0.7530     0.7970    -4.7850 ss         1 3BT      -0.380200
     18 HCA1        -0.5770     0.7380     2.8520 h1         1 3BT       0.075200
     19 HCA2         0.9540     0.3970     3.7060 h1         1 3BT       0.075200
     20 HCB1         0.9550    -1.9190     2.7470 hc         1 3BT       0.060950
     21 HCB2        -0.5490    -1.5840     1.9080 hc         1 3BT       0.060950
     22 HN11        -1.7750     0.8370     7.6570 hn         1 3BT       0.469250
     23 HN12        -1.8180    -0.7830     7.1140 hn         1 3BT       0.469250
     24 HN21        -0.3150     1.7870     4.7450 hn         1 3BT       0.390900
     25 H21         -0.6090     0.0000    -0.0300 ha         1 3BT       0.113000
     26 H61          3.1040    -0.9280     1.9750 ha         1 3BT       0.114500
     27 H51          4.3730     0.0380     0.0690 ha         1 3BT       0.116000
     28 H41          3.1660     0.9850    -1.8860 ha         1 3BT       0.114500
     29 HCC1         1.0910    -0.3820    -3.7000 h1         1 3BT       0.075200
     30 HCC2        -0.4630    -0.7350    -2.9050 h1         1 3BT       0.075200
     31 HCD1        -0.4930     1.5920    -1.9630 hc         1 3BT       0.060950
     32 HCD2         1.0380     1.9390    -2.7480 hc         1 3BT       0.060950
     33 H1'1        -2.3060    -0.9520    -7.2680 hn         1 3BT       0.469250
     34 H1'2        -1.9750     0.6830    -6.9520 hn         1 3BT       0.469250
     35 HN2         -0.8250    -2.3520    -6.4110 hn         1 3BT       0.390900
     36 CD           0.4510     1.1360    -2.2870 c3         1 3BT      -0.022100
@<TRIPOS>BOND
     1     1     2 1   
     2     1     6 1   
     3     1    18 1   
     4     1    19 1   
     5     2     9 1   
     6     2    20 1   
     7     2    21 1   
     8     3     5 1   
     9     3    22 1   
    10     3    23 1   
    11     4     5 2   
    12     4    24 1   
    13     5     6 1   
    14     7     8 ar  
    15     7    12 ar  
    16     7    36 1   
    17     8     9 ar  
    18     8    25 1   
    19     9    10 ar  
    20    10    11 ar  
    21    10    26 1   
    22    11    12 ar  
    23    11    27 1   
    24    12    28 1   
    25    13    17 1   
    26    13    29 1   
    27    13    30 1   
    28    13    36 1   
    29    14    16 1   
    30    14    33 1   
    31    14    34 1   
    32    15    16 2   
    33    15    35 1   
    34    16    17 1   
    35    31    36 1   
    36    32    36 1   
@<TRIPOS>SUBSTRUCTURE
     1 3BT         1 TEMP              0 ****  ****    0 ROOT
