@<TRIPOS>MOLECULE
3BT
   36    36     1     0     0
SMALL
abcg2


@<TRIPOS>ATOM
      1 CA          -0.0780    -0.0120     3.3130 c3         1 3BT       0.070600
      2 CB           0.0420    -1.0610     2.2100 c3         1 3BT      -0.022100
      3 N1          -1.3860     0.1280     7.1220 nv         1 3BT      -1.038700
      4 N2          -0.3840     1.7210     5.7990 n2         1 3BT      -0.848100
      5 C           -0.8590     0.5530     5.9390 c2         1 3BT       0.675600
      6 S           -1.0230    -0.7140     4.6920 ss         1 3BT      -0.380200
      7 C3           0.9730     0.5840    -1.0960 ca         1 3BT      -0.082800
      8 C2           0.2340     0.0410    -0.0490 ca         1 3BT      -0.097000
      9 C1           0.8540    -0.5180     1.0650 ca         1 3BT      -0.082800
     10 C6           2.2450    -0.5300     1.1220 ca         1 3BT      -0.103000
     11 C5           2.9950     0.0070     0.0860 ca         1 3BT      -0.106000
     12 C4           2.3630     0.5610    -1.0180 ca         1 3BT      -0.103000
     13 CC           0.1810     0.0760    -3.3960 c3         1 3BT       0.070600
     14 N3          -1.3580    -0.2810    -7.1050 nv         1 3BT      -1.038700
     15 N4          -0.2600    -1.7250    -5.5810 n2         1 3BT      -0.848100
     16 C7          -0.7540    -0.6080    -5.9260 c2         1 3BT       0.675600
     17 S1          -0.6320     0.7960    -4.8480 ss         1 3BT      -0.380200
     18 HCA1        -0.5890     0.8740     2.9320 h1         1 3BT       0.075200
     19 HCA2         0.9120     0.2780     3.6680 h1         1 3BT       0.075200
     20 HCB1         0.5180    -1.9590     2.6090 hc         1 3BT       0.060950
     21 HCB2        -0.9520    -1.3490     1.8630 hc         1 3BT       0.060950
     22 HN11        -1.1900     0.7200     7.9150 hn         1 3BT       0.469250
     23 HN12        -1.3570    -0.8560     7.3350 hn         1 3BT       0.469250
     24 HN21        -0.1170     1.9410     4.8490 hn         1 3BT       0.390900
     25 H21         -0.8500     0.0550    -0.1020 ha         1 3BT       0.113000
     26 H61          2.7440    -0.9620     1.9820 ha         1 3BT       0.114500
     27 H51          4.0760    -0.0060     0.1390 ha         1 3BT       0.116000
     28 H41          2.9520     0.9820    -1.8250 ha         1 3BT       0.114500
     29 HCC1         1.1680    -0.2830    -3.6830 h1         1 3BT       0.075200
     30 HCC2        -0.4040    -0.7750    -3.0470 h1         1 3BT       0.075200
     31 HCD1        -0.7100     1.5050    -2.0460 hc         1 3BT       0.060950
     32 HCD2         0.8470     2.0030    -2.6890 hc         1 3BT       0.060950
     33 H1'1        -1.6670    -1.0460    -7.6850 hn         1 3BT       0.469250
     34 H1'2        -1.9760     0.5140    -7.1290 hn         1 3BT       0.469250
     35 HN2         -0.4160    -2.4330    -6.2930 hn         1 3BT       0.390900
     36 CD           0.2860     1.1450    -2.3110 c3         1 3BT      -0.022100
@<TRIPOS>BOND
     1     1     2 1   
     2     1     6 1   
     3     1    18 1   
     4     1    19 1   
     5     2     9 1   
     6     2    20 1   
     7     2    21 1   
     8     3     5 1   
     9     3    22 1   
    10     3    23 1   
    11     4     5 2   
    12     4    24 1   
    13     5     6 1   
    14     7     8 ar  
    15     7    12 ar  
    16     7    36 1   
    17     8     9 ar  
    18     8    25 1   
    19     9    10 ar  
    20    10    11 ar  
    21    10    26 1   
    22    11    12 ar  
    23    11    27 1   
    24    12    28 1   
    25    13    17 1   
    26    13    29 1   
    27    13    30 1   
    28    13    36 1   
    29    14    16 1   
    30    14    33 1   
    31    14    34 1   
    32    15    16 2   
    33    15    35 1   
    34    16    17 1   
    35    31    36 1   
    36    32    36 1   
@<TRIPOS>SUBSTRUCTURE
     1 3BT         1 TEMP              0 ****  ****    0 ROOT
