@<TRIPOS>MOLECULE
3BU
   24    23     1     0     0
SMALL
No Charge or Current Charge


@<TRIPOS>ATOM
      1 C6          -3.1600    -0.5170    -0.2750 c3         1 3BU       0.135600
      2 O6          -4.3260     0.2810     0.0150 oh         1 3BU      -0.710000
      3 C5          -1.8920     0.2340     0.2080 c3         1 3BU       0.123300
      4 O5          -2.0090     1.5940    -0.2540 oh         1 3BU      -0.713000
      5 C4          -0.5600    -0.4150    -0.2950 c3         1 3BU       0.108300
      6 O4          -0.4680    -1.7710     0.1710 oh         1 3BU      -0.696000
      7 C3           0.7220     0.3650     0.1580 c3         1 3BU       0.136300
      8 O3           0.6270     1.7160    -0.3110 oh         1 3BU      -0.744000
      9 C2           2.0540    -0.2730    -0.3440 c3         1 3BU       0.050300
     10 O2           2.1840    -1.6440     0.1490 oh         1 3BU      -0.708000
     11 C1           3.2750     0.6120     0.0410 c          1 3BU       0.556900
     12 O1           4.2440     0.1790     0.6620 o          1 3BU      -0.525100
     13 H1          -3.2210    -1.4890     0.2330 h1         1 3BU       0.033700
     14 H2          -3.0850    -0.7060    -1.3550 h1         1 3BU       0.033700
     15 H3          -5.1160    -0.2690    -0.2060 ho         1 3BU       0.507000
     16 H4          -1.8880     0.2110     1.3080 h1         1 3BU       0.087700
     17 H5          -2.9930     1.7280    -0.2780 ho         1 3BU       0.510000
     18 H6          -0.5790    -0.4110    -1.3950 h1         1 3BU       0.076700
     19 H7           0.5160    -1.9520     0.2040 ho         1 3BU       0.515000
     20 H8           0.7400     0.3690     1.2580 h1         1 3BU       0.041700
     21 H9          -0.3620     1.8930    -0.3340 ho         1 3BU       0.544000
     22 H10          2.0280    -0.2730    -1.4430 h1         1 3BU       0.083700
     23 H11          3.1440    -1.7910     0.3510 ho         1 3BU       0.526000
     24 H12          3.3020     1.6220    -0.4250 h4         1 3BU       0.027200
@<TRIPOS>BOND
     1     1     2 1   
     2     1     3 1   
     3     1    13 1   
     4     1    14 1   
     5     2    15 1   
     6     3     4 1   
     7     3     5 1   
     8     3    16 1   
     9     4    17 1   
    10     5     6 1   
    11     5     7 1   
    12     5    18 1   
    13     6    19 1   
    14     7     8 1   
    15     7     9 1   
    16     7    20 1   
    17     8    21 1   
    18     9    10 1   
    19     9    11 1   
    20     9    22 1   
    21    10    23 1   
    22    11    12 2   
    23    11    24 1   
@<TRIPOS>SUBSTRUCTURE
     1 3BU         1 TEMP              0 ****  ****    0 ROOT
