@<TRIPOS>MOLECULE
3BU
   24    23     1     0     0
SMALL
abcg2


@<TRIPOS>ATOM
      1 C6          -3.0970    -0.5360    -0.2250 c3         1 3BU       0.135600
      2 O6          -4.2130     0.0360     0.4160 oh         1 3BU      -0.710000
      3 C5          -1.8530     0.2210     0.2060 c3         1 3BU       0.123300
      4 O5          -1.9720     1.6090    -0.0780 oh         1 3BU      -0.713000
      5 C4          -0.5700    -0.3550    -0.4310 c3         1 3BU       0.108300
      6 O4          -0.5330    -1.7550    -0.3300 oh         1 3BU      -0.696000
      7 C3           0.6910     0.2970     0.1680 c3         1 3BU       0.136300
      8 O3           0.7270     1.6810    -0.0800 oh         1 3BU      -0.744000
      9 C2           1.9910    -0.3060    -0.4080 c3         1 3BU       0.050300
     10 O2           2.2580    -1.5710     0.1190 oh         1 3BU      -0.708000
     11 C1           3.1500     0.6310    -0.1460 c          1 3BU       0.556900
     12 O1           4.0680     0.3080     0.5690 o          1 3BU      -0.525100
     13 H1          -2.9810    -1.5930     0.0300 h1         1 3BU       0.033700
     14 H2          -3.1860    -0.4800    -1.3210 h1         1 3BU       0.033700
     15 H3          -4.9780    -0.5090     0.2140 ho         1 3BU       0.507000
     16 H4          -1.7540     0.1680     1.3000 h1         1 3BU       0.087700
     17 H5          -2.2220     1.7190    -1.0040 ho         1 3BU       0.510000
     18 H6          -0.5880    -0.1320    -1.5060 h1         1 3BU       0.076700
     19 H7          -0.3230    -2.0040     0.5770 ho         1 3BU       0.515000
     20 H8           0.7040     0.0910     1.2520 h1         1 3BU       0.041700
     21 H9          -0.1830     2.0150    -0.0340 ho         1 3BU       0.544000
     22 H10          1.8930    -0.3660    -1.5030 h1         1 3BU       0.083700
     23 H11          3.0160    -1.4820     0.7130 ho         1 3BU       0.526000
     24 H12          3.1300     1.6040    -0.6530 h4         1 3BU       0.027200
@<TRIPOS>BOND
     1     1     2 1   
     2     1     3 1   
     3     1    13 1   
     4     1    14 1   
     5     2    15 1   
     6     3     4 1   
     7     3     5 1   
     8     3    16 1   
     9     4    17 1   
    10     5     6 1   
    11     5     7 1   
    12     5    18 1   
    13     6    19 1   
    14     7     8 1   
    15     7     9 1   
    16     7    20 1   
    17     8    21 1   
    18     9    10 1   
    19     9    11 1   
    20     9    22 1   
    21    10    23 1   
    22    11    12 2   
    23    11    24 1   
@<TRIPOS>SUBSTRUCTURE
     1 3BU         1 TEMP              0 ****  ****    0 ROOT
