@<TRIPOS>MOLECULE
3BV
  113   115     1     0     0
SMALL
No Charge or Current Charge


@<TRIPOS>ATOM
      1 C8           6.6020    -0.2170     0.9860 c          1 3BV       0.598100
      2 O9           6.6950     0.1380     2.1540 o          1 3BV      -0.578100
      3 C7           7.8140    -0.7000     0.1420 c3         1 3BV       0.092800
      4 N4           7.5790    -1.8440    -0.7970 n3         1 3BV      -0.695600
      5 O1           8.0780    -4.4620    -1.9550 os         1 3BV      -0.451000
      6 C5           7.1650    -3.1070    -0.1060 c6         1 3BV       0.127300
      7 C3           8.7390    -2.0970    -1.7060 c6         1 3BV       0.127300
      8 C6           6.9100    -4.2590    -1.1220 c6         1 3BV       0.154100
      9 C2           8.4540    -3.2710    -2.6890 c6         1 3BV       0.154100
     10 N10          5.3990    -0.2380     0.3130 ns         1 3BV      -0.497900
     11 C11          4.0840     0.1370     0.8780 c3         1 3BV       0.040700
     12 C20          2.9770    -0.8320     0.3650 c          1 3BV       0.598100
     13 O21          3.1560    -1.6490    -0.5300 o          1 3BV      -0.601100
     14 C12          3.7270     1.6150     0.5590 c3         1 3BV      -0.091400
     15 C13          4.6920     2.6630     1.1560 c3         1 3BV      -0.028100
     16 C14          4.1960     4.0810     0.9090 ca         1 3BV      -0.085300
     17 C19          4.6180     4.7940    -0.2290 ca         1 3BV      -0.106500
     18 C15          3.2890     4.6810     1.8050 ca         1 3BV      -0.106500
     19 C18          4.1400     6.0950    -0.4690 ca         1 3BV      -0.110000
     20 C16          2.8110     5.9810     1.5660 ca         1 3BV      -0.110000
     21 C17          3.2360     6.6880     0.4280 ca         1 3BV      -0.110000
     22 N22          1.7560    -0.6980     0.9900 ns         1 3BV      -0.493900
     23 C23          0.5270    -1.4360     0.6320 c3         1 3BV       0.039700
     24 C28         -0.7010    -0.5580     1.0070 c          1 3BV       0.591100
     25 O29         -0.6790     0.2510     1.9260 o          1 3BV      -0.615100
     26 C24          0.5200    -2.8210     1.3380 c3         1 3BV      -0.087400
     27 C25         -0.6710    -3.7600     0.9980 c3         1 3BV      -0.061700
     28 C26         -0.7330    -4.1290    -0.5040 c3         1 3BV      -0.089100
     29 C27         -0.6280    -5.0370     1.8680 c3         1 3BV      -0.089100
     30 N30         -1.8140    -0.7260     0.2100 ns         1 3BV      -0.493900
     31 C31         -3.0200     0.1320     0.2490 c3         1 3BV       0.030700
     32 C39         -4.3040    -0.7210     0.0540 c          1 3BV       0.584100
     33 O40         -4.2840    -1.8830    -0.3350 o          1 3BV      -0.605100
     34 C32         -2.9310     1.2610    -0.8140 c3         1 3BV      -0.036100
     35 C33         -1.6130     2.0330    -0.7820 ca         1 3BV      -0.086300
     36 C34         -1.4270     3.0840     0.1380 ca         1 3BV      -0.101500
     37 C38         -0.5680     1.6960    -1.6660 ca         1 3BV      -0.101500
     38 C35         -0.2120     3.7910     0.1700 ca         1 3BV      -0.110500
     39 C37          0.6470     2.4020    -1.6320 ca         1 3BV      -0.110500
     40 C36          0.8230     3.4530    -0.7170 ca         1 3BV      -0.110000
     41 N41         -5.4830    -0.0700     0.3460 ns         1 3BV      -0.502900
     42 C42         -6.8270    -0.6420     0.1990 c3         1 3BV       0.079700
     43 C43         -7.2890    -1.2390     1.5590 c3         1 3BV      -0.086400
     44 C44         -8.6710    -1.9550     1.5630 c3         1 3BV      -0.057700
     45 C45         -8.7510    -3.1140     0.5400 c3         1 3BV      -0.090100
     46 C46         -9.0250    -2.4530     2.9830 c3         1 3BV      -0.090100
     47 C47         -7.8100     0.4110    -0.4210 c3         1 3BV       0.157300
     48 C51         -7.3750     0.9770    -1.8170 c3         1 3BV      -0.091700
     49 C58         -8.4130     2.0010    -2.3650 c3         1 3BV      -0.082100
     50 C59         -7.1030    -0.1520    -2.8530 c3         1 3BV       0.162600
     51 O60         -6.6190     0.3930    -4.0870 oh         1 3BV      -0.661000
     52 O48         -7.9540     1.5060     0.5030 oh         1 3BV      -0.653000
     53 H5           8.1420     0.1750    -0.4330 h1         1 3BV       0.048700
     54 H6           8.6220    -0.9480     0.8430 h1         1 3BV       0.048700
     55 H1           7.9440    -3.4270     0.6020 h1         1 3BV       0.041200
     56 H2           6.2460    -2.9460     0.4760 h1         1 3BV       0.041200
     57 H16          8.9690    -1.1950    -2.2910 h1         1 3BV       0.041200
     58 H17          9.6380    -2.3390    -1.1190 h1         1 3BV       0.041200
     59 H3           6.0480    -4.0130    -1.7590 h1         1 3BV       0.053950
     60 H4           6.6850    -5.1900    -0.5840 h1         1 3BV       0.053950
     61 H18          9.3500    -3.4840    -3.2880 h1         1 3BV       0.053950
     62 H19          7.6400    -2.9950    -3.3750 h1         1 3BV       0.053950
     63 H21          5.4330    -0.6280    -0.6230 hn         1 3BV       0.320500
     64 H22          4.1190     0.0130     1.9690 h1         1 3BV       0.074700
     65 H23          3.6820     1.7480    -0.5300 hc         1 3BV       0.063700
     66 H24          2.7210     1.8300     0.9380 hc         1 3BV       0.063700
     67 H7           4.7980     2.4850     2.2340 hc         1 3BV       0.050200
     68 H8           5.6910     2.5340     0.7220 hc         1 3BV       0.050200
     69 H25          5.3130     4.3390    -0.9330 ha         1 3BV       0.111500
     70 H9           2.9490     4.1370     2.6840 ha         1 3BV       0.111500
     71 H26          4.4690     6.6410    -1.3500 ha         1 3BV       0.115000
     72 H27          2.1090     6.4380     2.2600 ha         1 3BV       0.115000
     73 H10          2.8650     7.6940     0.2420 ha         1 3BV       0.115000
     74 H28          1.6850     0.0110     1.7130 hn         1 3BV       0.329500
     75 H29          0.5160    -1.5730    -0.4560 h1         1 3BV       0.090700
     76 H11          1.4540    -3.3440     1.0960 hc         1 3BV       0.061200
     77 H12          0.5370    -2.6510     2.4230 hc         1 3BV       0.061200
     78 H30         -1.6040    -3.2430     1.2530 hc         1 3BV       0.045700
     79 H13         -1.5690    -4.8110    -0.7000 hc         1 3BV       0.035367
     80 H14         -0.8790    -3.2430    -1.1310 hc         1 3BV       0.035367
     81 H15          0.1930    -4.6250    -0.8220 hc         1 3BV       0.035367
     82 H31         -0.6420    -4.7810     2.9350 hc         1 3BV       0.035367
     83 H32         -1.4960    -5.6760     1.6650 hc         1 3BV       0.035367
     84 H33          0.2810    -5.6180     1.6660 hc         1 3BV       0.035367
     85 H34         -1.7720    -1.4530    -0.4960 hn         1 3BV       0.329500
     86 H35         -3.0950     0.5920     1.2430 h1         1 3BV       0.087700
     87 H36         -3.0730     0.8180    -1.8080 hc         1 3BV       0.067700
     88 H37         -3.7690     1.9540    -0.6770 hc         1 3BV       0.067700
     89 H42         -2.2220     3.3500     0.8310 ha         1 3BV       0.110000
     90 H38         -0.6960     0.8840    -2.3790 ha         1 3BV       0.110000
     91 H41         -0.0730     4.6020     0.8820 ha         1 3BV       0.112500
     92 H39          1.4490     2.1370    -2.3170 ha         1 3BV       0.112500
     93 H40          1.7600     4.0030    -0.6950 ha         1 3BV       0.121000
     94 H43         -5.4170     0.8890     0.6680 hn         1 3BV       0.321500
     95 H44         -6.7590    -1.4840    -0.5000 h1         1 3BV       0.082700
     96 H45         -6.5280    -1.9540     1.8960 hc         1 3BV       0.049700
     97 H46         -7.3040    -0.4380     2.3090 hc         1 3BV       0.049700
     98 H47         -9.4380    -1.2200     1.2910 hc         1 3BV       0.053700
     99 H48         -8.6510    -2.7450    -0.4870 hc         1 3BV       0.033700
    100 H49         -7.9600    -3.8520     0.7220 hc         1 3BV       0.033700
    101 H50         -9.7190    -3.6260     0.6120 hc         1 3BV       0.033700
    102 H51         -9.0210    -1.6220     3.6980 hc         1 3BV       0.033700
    103 H52        -10.0240    -2.9050     2.9980 hc         1 3BV       0.033700
    104 H53         -8.3030    -3.2050     3.3250 hc         1 3BV       0.033700
    105 H54         -8.7800    -0.0860    -0.5630 h1         1 3BV       0.077700
    106 H56         -6.4310     1.5190    -1.6780 hc         1 3BV       0.059700
    107 H57         -8.0940     2.4140    -3.3290 hc         1 3BV       0.040033
    108 H58         -9.3910     1.5260    -2.5070 hc         1 3BV       0.040033
    109 H59         -8.5380     2.8510    -1.6840 hc         1 3BV       0.040033
    110 H60         -6.3540    -0.8490    -2.4580 h1         1 3BV       0.025200
    111 H61         -8.0290    -0.7180    -3.0230 h1         1 3BV       0.025200
    112 H62         -6.4840    -0.3620    -4.7020 ho         1 3BV       0.444000
    113 H55         -8.6740     2.0790     0.1630 ho         1 3BV       0.439000
@<TRIPOS>BOND
     1     1     2 2   
     2     1     3 1   
     3     1    10 1   
     4     3     4 1   
     5     3    53 1   
     6     3    54 1   
     7     4     6 1   
     8     4     7 1   
     9     5     8 1   
    10     5     9 1   
    11     6     8 1   
    12     6    55 1   
    13     6    56 1   
    14     7     9 1   
    15     7    57 1   
    16     7    58 1   
    17     8    59 1   
    18     8    60 1   
    19     9    61 1   
    20     9    62 1   
    21    10    11 1   
    22    10    63 1   
    23    11    12 1   
    24    11    14 1   
    25    11    64 1   
    26    12    13 2   
    27    12    22 1   
    28    14    15 1   
    29    14    65 1   
    30    14    66 1   
    31    15    16 1   
    32    15    67 1   
    33    15    68 1   
    34    16    17 ar  
    35    16    18 ar  
    36    17    19 ar  
    37    17    69 1   
    38    18    20 ar  
    39    18    70 1   
    40    19    21 ar  
    41    19    71 1   
    42    20    21 ar  
    43    20    72 1   
    44    21    73 1   
    45    22    23 1   
    46    22    74 1   
    47    23    24 1   
    48    23    26 1   
    49    23    75 1   
    50    24    25 2   
    51    24    30 1   
    52    26    27 1   
    53    26    76 1   
    54    26    77 1   
    55    27    28 1   
    56    27    29 1   
    57    27    78 1   
    58    28    79 1   
    59    28    80 1   
    60    28    81 1   
    61    29    82 1   
    62    29    83 1   
    63    29    84 1   
    64    30    31 1   
    65    30    85 1   
    66    31    32 1   
    67    31    34 1   
    68    31    86 1   
    69    32    33 2   
    70    32    41 1   
    71    34    35 1   
    72    34    87 1   
    73    34    88 1   
    74    35    36 ar  
    75    35    37 ar  
    76    36    38 ar  
    77    36    89 1   
    78    37    39 ar  
    79    37    90 1   
    80    38    40 ar  
    81    38    91 1   
    82    39    40 ar  
    83    39    92 1   
    84    40    93 1   
    85    41    42 1   
    86    41    94 1   
    87    42    43 1   
    88    42    47 1   
    89    42    95 1   
    90    43    44 1   
    91    43    96 1   
    92    43    97 1   
    93    44    45 1   
    94    44    46 1   
    95    44    98 1   
    96    45    99 1   
    97    45   100 1   
    98    45   101 1   
    99    46   102 1   
   100    46   103 1   
   101    46   104 1   
   102    47    48 1   
   103    47    52 1   
   104    47   105 1   
   105    48    49 1   
   106    48    50 1   
   107    48   106 1   
   108    49   107 1   
   109    49   108 1   
   110    49   109 1   
   111    50    51 1   
   112    50   110 1   
   113    50   111 1   
   114    51   112 1   
   115    52   113 1   
@<TRIPOS>SUBSTRUCTURE
     1 3BV         1 TEMP              0 ****  ****    0 ROOT
