@<TRIPOS>MOLECULE
3BV
  113   115     1     0     0
SMALL
abcg2


@<TRIPOS>ATOM
      1 C8           5.0400    -1.7130    -0.0920 c          1 3BV       0.598100
      2 O9           4.3930    -2.5060     0.5730 o          1 3BV      -0.578100
      3 C7           6.3100    -2.1040    -0.8290 c3         1 3BV       0.092800
      4 N4           7.1130    -3.0080    -0.0490 n3         1 3BV      -0.695600
      5 O1           9.5060    -3.9810     1.1200 os         1 3BV      -0.451000
      6 C5           7.7150    -2.3520     1.0980 c6         1 3BV       0.127300
      7 C3           8.1350    -3.6570    -0.8500 c6         1 3BV       0.127300
      8 C6           8.5180    -3.3530     1.9060 c6         1 3BV       0.154100
      9 C2           8.9270    -4.6250     0.0070 c6         1 3BV       0.154100
     10 N10          4.6700    -0.4300    -0.2380 ns         1 3BV      -0.497900
     11 C11          3.4320     0.0610     0.3020 c3         1 3BV       0.040700
     12 C20          2.2400    -0.6020    -0.3890 c          1 3BV       0.598100
     13 O21          2.2730    -0.9160    -1.5660 o          1 3BV      -0.601100
     14 C12          3.3360     1.5760     0.1190 c3         1 3BV      -0.091400
     15 C13          4.3910     2.3450     0.9170 c3         1 3BV      -0.028100
     16 C14          4.2120     3.8290     0.7530 ca         1 3BV      -0.085300
     17 C19          4.8010     4.5010    -0.3160 ca         1 3BV      -0.106500
     18 C15          3.4040     4.5500     1.6280 ca         1 3BV      -0.106500
     19 C18          4.5870     5.8590    -0.5080 ca         1 3BV      -0.110000
     20 C16          3.1870     5.9090     1.4410 ca         1 3BV      -0.110000
     21 C17          3.7760     6.5680     0.3690 ca         1 3BV      -0.110000
     22 N22          1.1630    -0.7430     0.4020 ns         1 3BV      -0.493900
     23 C23         -0.1200    -1.2240    -0.0490 c3         1 3BV       0.039700
     24 C28         -1.1630    -0.1480     0.2350 c          1 3BV       0.591100
     25 O29         -1.3130     0.2920     1.3640 o          1 3BV      -0.615100
     26 C24         -0.5050    -2.5200     0.6700 c3         1 3BV      -0.087400
     27 C25         -1.8790    -3.0810     0.3030 c3         1 3BV      -0.061700
     28 C26         -1.9910    -3.4290    -1.1770 c3         1 3BV      -0.089100
     29 C27         -2.1810    -4.3020     1.1650 c3         1 3BV      -0.089100
     30 N30         -1.8930     0.2360    -0.8240 ns         1 3BV      -0.493900
     31 C31         -2.9650     1.2050    -0.7610 c3         1 3BV       0.030700
     32 C39         -4.2710     0.4400    -0.9830 c          1 3BV       0.584100
     33 O40         -4.6350     0.1400    -2.1090 o          1 3BV      -0.605100
     34 C32         -2.7680     2.3130    -1.7970 c3         1 3BV      -0.036100
     35 C33         -1.4550     3.0170    -1.5990 ca         1 3BV      -0.086300
     36 C34         -1.3250     4.0320    -0.6550 ca         1 3BV      -0.101500
     37 C38         -0.3290     2.6330    -2.3220 ca         1 3BV      -0.101500
     38 C35         -0.1000     4.6500    -0.4390 ca         1 3BV      -0.110500
     39 C37          0.8970     3.2490    -2.1110 ca         1 3BV      -0.110500
     40 C36          1.0160     4.2600    -1.1670 ca         1 3BV      -0.110000
     41 N41         -4.9110     0.0860     0.1420 ns         1 3BV      -0.502900
     42 C42         -6.0570    -0.8070     0.1980 c3         1 3BV       0.079700
     43 C43         -5.7460    -1.9410     1.1790 c3         1 3BV      -0.086400
     44 C44         -6.8110    -3.0300     1.3060 c3         1 3BV      -0.057700
     45 C45         -7.1810    -3.6370    -0.0440 c3         1 3BV      -0.090100
     46 C46         -6.3230    -4.1100     2.2670 c3         1 3BV      -0.090100
     47 C47         -7.3380    -0.0360     0.5640 c3         1 3BV       0.157300
     48 C51         -7.7890     0.9990    -0.4800 c3         1 3BV      -0.091700
     49 C58         -9.0170     1.7600     0.0190 c3         1 3BV      -0.082100
     50 C59         -8.0890     0.3190    -1.8130 c3         1 3BV       0.162600
     51 O60         -8.5530     1.2820    -2.7350 oh         1 3BV      -0.661000
     52 O48         -7.2040     0.5330     1.8490 oh         1 3BV      -0.653000
     53 H5           6.0000    -2.6110    -1.7490 h1         1 3BV       0.048700
     54 H6           6.8660    -1.2050    -1.1450 h1         1 3BV       0.048700
     55 H1           8.3670    -1.5150     0.7910 h1         1 3BV       0.041200
     56 H2           6.9370    -1.9340     1.7410 h1         1 3BV       0.041200
     57 H16          7.6600    -4.2130    -1.6630 h1         1 3BV       0.041200
     58 H17          8.8220    -2.9280    -1.3120 h1         1 3BV       0.041200
     59 H3           7.8360    -4.1010     2.3370 h1         1 3BV       0.053950
     60 H4           9.0250    -2.8480     2.7280 h1         1 3BV       0.053950
     61 H18          9.7370    -5.0640    -0.5760 h1         1 3BV       0.053950
     62 H19          8.2680    -5.4420     0.3360 h1         1 3BV       0.053950
     63 H21          5.1980     0.1670    -0.8550 hn         1 3BV       0.320500
     64 H22          3.3960    -0.1630     1.3740 h1         1 3BV       0.074700
     65 H23          3.4170     1.8210    -0.9450 hc         1 3BV       0.063700
     66 H24          2.3410     1.9050     0.4270 hc         1 3BV       0.063700
     67 H7           4.3120     2.0700     1.9720 hc         1 3BV       0.050200
     68 H8           5.3940     2.0570     0.5940 hc         1 3BV       0.050200
     69 H25          5.4330     3.9540    -1.0070 ha         1 3BV       0.111500
     70 H9           2.9380     4.0440     2.4660 ha         1 3BV       0.111500
     71 H26          5.0530     6.3650    -1.3450 ha         1 3BV       0.115000
     72 H27          2.5560     6.4540     2.1320 ha         1 3BV       0.115000
     73 H10          3.6060     7.6260     0.2200 ha         1 3BV       0.115000
     74 H28          1.2410    -0.4850     1.3750 hn         1 3BV       0.329500
     75 H29         -0.0330    -1.4080    -1.1200 h1         1 3BV       0.090700
     76 H11          0.2640    -3.2670     0.4500 hc         1 3BV       0.061200
     77 H12         -0.4660    -2.3410     1.7480 hc         1 3BV       0.061200
     78 H30         -2.6380    -2.3230     0.5320 hc         1 3BV       0.045700
     79 H13         -2.9730    -3.8490    -1.4010 hc         1 3BV       0.035367
     80 H14         -1.8640    -2.5590    -1.8240 hc         1 3BV       0.035367
     81 H15         -1.2390    -4.1680    -1.4640 hc         1 3BV       0.035367
     82 H31         -2.1520    -4.0570     2.2280 hc         1 3BV       0.035367
     83 H32         -3.1710    -4.7050     0.9430 hc         1 3BV       0.035367
     84 H33         -1.4530    -5.0970     0.9860 hc         1 3BV       0.035367
     85 H34         -1.6850    -0.1610    -1.7270 hn         1 3BV       0.329500
     86 H35         -2.9460     1.6470     0.2360 h1         1 3BV       0.087700
     87 H36         -2.8220     1.8880    -2.8010 hc         1 3BV       0.067700
     88 H37         -3.5980     3.0170    -1.7060 hc         1 3BV       0.067700
     89 H42         -2.1910     4.3460    -0.0830 ha         1 3BV       0.110000
     90 H38         -0.4110     1.8440    -3.0600 ha         1 3BV       0.110000
     91 H41         -0.0160     5.4370     0.2990 ha         1 3BV       0.112500
     92 H39          1.7610     2.9360    -2.6840 ha         1 3BV       0.112500
     93 H40          1.9740     4.7350    -0.9940 ha         1 3BV       0.121000
     94 H43         -4.4940     0.3530     1.0210 hn         1 3BV       0.321500
     95 H44         -6.1700    -1.2360    -0.7970 h1         1 3BV       0.082700
     96 H45         -4.8120    -2.4080     0.8500 hc         1 3BV       0.049700
     97 H46         -5.5430    -1.5220     2.1690 hc         1 3BV       0.049700
     98 H47         -7.7160    -2.5930     1.7410 hc         1 3BV       0.053700
     99 H48         -7.6620    -2.9150    -0.7070 hc         1 3BV       0.033700
    100 H49         -6.2970    -4.0220    -0.5590 hc         1 3BV       0.033700
    101 H50         -7.8790    -4.4670     0.0820 hc         1 3BV       0.033700
    102 H51         -6.0800    -3.6920     3.2450 hc         1 3BV       0.033700
    103 H52         -7.0820    -4.8800     2.4130 hc         1 3BV       0.033700
    104 H53         -5.4250    -4.6020     1.8850 hc         1 3BV       0.033700
    105 H54         -8.1460    -0.7710     0.6560 h1         1 3BV       0.077700
    106 H56         -6.9740     1.7180    -0.6360 hc         1 3BV       0.059700
    107 H57         -9.3170     2.5310    -0.6880 hc         1 3BV       0.040033
    108 H58         -9.8660     1.0840     0.1540 hc         1 3BV       0.040033
    109 H59         -8.8300     2.2510     0.9730 hc         1 3BV       0.040033
    110 H60         -7.1930    -0.1710    -2.2020 h1         1 3BV       0.025200
    111 H61         -8.8430    -0.4660    -1.6430 h1         1 3BV       0.025200
    112 H62         -8.6530     0.8490    -3.5870 ho         1 3BV       0.444000
    113 H55         -6.6420     1.3130     1.7840 ho         1 3BV       0.439000
@<TRIPOS>BOND
     1     1     2 2   
     2     1     3 1   
     3     1    10 1   
     4     3     4 1   
     5     3    53 1   
     6     3    54 1   
     7     4     6 1   
     8     4     7 1   
     9     5     8 1   
    10     5     9 1   
    11     6     8 1   
    12     6    55 1   
    13     6    56 1   
    14     7     9 1   
    15     7    57 1   
    16     7    58 1   
    17     8    59 1   
    18     8    60 1   
    19     9    61 1   
    20     9    62 1   
    21    10    11 1   
    22    10    63 1   
    23    11    12 1   
    24    11    14 1   
    25    11    64 1   
    26    12    13 2   
    27    12    22 1   
    28    14    15 1   
    29    14    65 1   
    30    14    66 1   
    31    15    16 1   
    32    15    67 1   
    33    15    68 1   
    34    16    17 ar  
    35    16    18 ar  
    36    17    19 ar  
    37    17    69 1   
    38    18    20 ar  
    39    18    70 1   
    40    19    21 ar  
    41    19    71 1   
    42    20    21 ar  
    43    20    72 1   
    44    21    73 1   
    45    22    23 1   
    46    22    74 1   
    47    23    24 1   
    48    23    26 1   
    49    23    75 1   
    50    24    25 2   
    51    24    30 1   
    52    26    27 1   
    53    26    76 1   
    54    26    77 1   
    55    27    28 1   
    56    27    29 1   
    57    27    78 1   
    58    28    79 1   
    59    28    80 1   
    60    28    81 1   
    61    29    82 1   
    62    29    83 1   
    63    29    84 1   
    64    30    31 1   
    65    30    85 1   
    66    31    32 1   
    67    31    34 1   
    68    31    86 1   
    69    32    33 2   
    70    32    41 1   
    71    34    35 1   
    72    34    87 1   
    73    34    88 1   
    74    35    36 ar  
    75    35    37 ar  
    76    36    38 ar  
    77    36    89 1   
    78    37    39 ar  
    79    37    90 1   
    80    38    40 ar  
    81    38    91 1   
    82    39    40 ar  
    83    39    92 1   
    84    40    93 1   
    85    41    42 1   
    86    41    94 1   
    87    42    43 1   
    88    42    47 1   
    89    42    95 1   
    90    43    44 1   
    91    43    96 1   
    92    43    97 1   
    93    44    45 1   
    94    44    46 1   
    95    44    98 1   
    96    45    99 1   
    97    45   100 1   
    98    45   101 1   
    99    46   102 1   
   100    46   103 1   
   101    46   104 1   
   102    47    48 1   
   103    47    52 1   
   104    47   105 1   
   105    48    49 1   
   106    48    50 1   
   107    48   106 1   
   108    49   107 1   
   109    49   108 1   
   110    49   109 1   
   111    50    51 1   
   112    50   110 1   
   113    50   111 1   
   114    51   112 1   
   115    52   113 1   
@<TRIPOS>SUBSTRUCTURE
     1 3BV         1 TEMP              0 ****  ****    0 ROOT
