@<TRIPOS>MOLECULE
3BW
   46    48     1     0     0
SMALL
No Charge or Current Charge


@<TRIPOS>ATOM
      1 C1          -2.2980    -0.5230     0.9170 ca         1 3BW      -0.103000
      2 C2          -1.0050    -0.0800     1.2440 ca         1 3BW      -0.102500
      3 C3           0.0930    -0.4100     0.4280 ca         1 3BW      -0.099000
      4 C8          -4.8980    -1.0060    -0.4140 ca         1 3BW       0.137100
      5 C9          -4.9020     0.3790    -0.6740 ca         1 3BW      -0.153500
      6 C10         -6.0870     1.1210    -0.5120 ca         1 3BW      -0.070500
      7 C11         -7.2660     0.4770    -0.0980 ca         1 3BW       0.086000
      8 C12         -7.2660    -0.9070     0.1490 ca         1 3BW      -0.070500
      9 C13         -6.0810    -1.6480    -0.0140 ca         1 3BW      -0.153500
     10 C16          2.9040    -0.4680    -0.3470 c3         1 3BW       0.036600
     11 C19          6.3820    -0.3020     1.5650 c6         1 3BW       0.152600
     12 C21          6.8030    -1.0990    -0.6690 c6         1 3BW       0.152600
     13 C22          5.2820    -1.0900    -1.0020 c6         1 3BW      -0.103400
     14 C5          -1.4100    -1.6420    -1.0520 ca         1 3BW      -0.103000
     15 C4          -0.1160    -1.1980    -0.7250 ca         1 3BW      -0.102500
     16 C6          -2.5030    -1.2980    -0.2410 ca         1 3BW       0.087100
     17 C23          4.6200     1.4160    -0.4830 c          1 3BW       0.602100
     18 C18          4.8500    -0.3590     1.3670 c6         1 3BW      -0.103400
     19 C17          4.4160    -0.1030    -0.1190 c6         1 3BW      -0.111000
     20 O24          3.8330     2.2800    -0.1160 o          1 3BW      -0.551100
     21 O20          7.0020    -1.3060     0.7410 os         1 3BW      -0.447000
     22 O26          5.7090     3.0450    -1.9960 oh         1 3BW      -0.424100
     23 O7          -3.7560    -1.7570    -0.5790 os         1 3BW      -0.250200
     24 S15          1.7140     0.1950     0.9140 ss         1 3BW      -0.121000
     25 Cl1         -8.7470     1.4040     0.1050 cl         1 3BW      -0.203000
     26 H1          -3.1340    -0.2690     1.5640 ha         1 3BW       0.131000
     27 H2          -0.8540     0.5210     2.1390 ha         1 3BW       0.122500
     28 H3          -3.9950     0.8790    -1.0060 ha         1 3BW       0.132000
     29 H4          -6.0930     2.1900    -0.7080 ha         1 3BW       0.130000
     30 H5          -8.1820    -1.4020     0.4650 ha         1 3BW       0.130000
     31 H6          -6.0790    -2.7190     0.1750 ha         1 3BW       0.132000
     32 H7           2.5990    -0.1170    -1.3410 h1         1 3BW       0.067700
     33 H8           2.8000    -1.5600    -0.3280 h1         1 3BW       0.067700
     34 H9           6.7770     0.6910     1.3040 h1         1 3BW       0.053450
     35 H10          6.6300    -0.5020     2.6170 h1         1 3BW       0.053450
     36 H11          7.2960    -1.9150    -1.2170 h1         1 3BW       0.053450
     37 H12          7.2960    -0.1630    -0.9640 h1         1 3BW       0.053450
     38 H13          5.1330    -0.8850    -2.0720 hc         1 3BW       0.060450
     39 H14          4.9190    -2.1180    -0.8570 hc         1 3BW       0.060450
     40 H15          6.1500     0.9970    -1.8410 hn         1 3BW       0.329500
     41 H16         -1.5670    -2.2500    -1.9390 ha         1 3BW       0.131000
     42 H17          0.7060    -1.4770    -1.3770 ha         1 3BW       0.122500
     43 H18          4.4900    -1.3440     1.6970 hc         1 3BW       0.060450
     44 H19          4.3800     0.3760     2.0350 hc         1 3BW       0.060450
     45 H20          6.6370     3.3400    -1.8410 ho         1 3BW       0.447000
     46 N25          5.6500     1.7420    -1.3630 ns         1 3BW      -0.382400
@<TRIPOS>BOND
     1     1     2 ar  
     2     1    16 ar  
     3     1    26 1   
     4     2     3 ar  
     5     2    27 1   
     6     3    15 ar  
     7     3    24 1   
     8     4     5 ar  
     9     4     9 ar  
    10     4    23 1   
    11     5     6 ar  
    12     5    28 1   
    13     6     7 ar  
    14     6    29 1   
    15     7     8 ar  
    16     7    25 1   
    17     8     9 ar  
    18     8    30 1   
    19     9    31 1   
    20    10    19 1   
    21    10    24 1   
    22    10    32 1   
    23    10    33 1   
    24    11    18 1   
    25    11    21 1   
    26    11    34 1   
    27    11    35 1   
    28    12    13 1   
    29    12    21 1   
    30    12    36 1   
    31    12    37 1   
    32    13    19 1   
    33    13    38 1   
    34    13    39 1   
    35    14    15 ar  
    36    14    16 ar  
    37    14    41 1   
    38    15    42 1   
    39    16    23 1   
    40    17    19 1   
    41    17    20 2   
    42    17    46 1   
    43    18    19 1   
    44    18    43 1   
    45    18    44 1   
    46    22    45 1   
    47    22    46 1   
    48    40    46 1   
@<TRIPOS>SUBSTRUCTURE
     1 3BW         1 TEMP              0 ****  ****    0 ROOT
