@<TRIPOS>MOLECULE
3BW
   46    48     1     0     0
SMALL
bcc


@<TRIPOS>ATOM
      1 C1          -2.0240    -0.4910     1.5310 ca         1 3BW      -0.121000
      2 C2          -0.7260    -0.0390     1.6740 ca         1 3BW      -0.120500
      3 C3           0.2570    -0.3880     0.7430 ca         1 3BW       0.027900
      4 C8          -4.6160    -0.9960    -0.1340 ca         1 3BW       0.137100
      5 C9          -4.3910     0.2470    -0.7130 ca         1 3BW      -0.171500
      6 C10         -5.4640     0.9950    -1.1790 ca         1 3BW      -0.088500
      7 C11         -6.7510     0.5000    -1.0660 ca         1 3BW      -0.005600
      8 C12         -6.9820    -0.7420    -0.4910 ca         1 3BW      -0.088500
      9 C13         -5.9140    -1.4870    -0.0230 ca         1 3BW      -0.171500
     10 C16          2.8750    -0.5590    -0.2350 c3         1 3BW      -0.011300
     11 C19          6.4340    -0.6570     1.3130 c6         1 3BW       0.129400
     12 C21          6.6420    -0.7520    -1.0140 c6         1 3BW       0.129400
     13 C22          5.1410    -0.8840    -1.2100 c6         1 3BW      -0.103400
     14 C5          -1.3930    -1.6550    -0.4770 ca         1 3BW      -0.121000
     15 C4          -0.0880    -1.2010    -0.3320 ca         1 3BW      -0.120500
     16 C6          -2.3540    -1.3040     0.4540 ca         1 3BW       0.087100
     17 C23          4.4890     1.3350    -0.0990 c          1 3BW       0.669100
     18 C18          4.9160    -0.7430     1.2490 c6         1 3BW      -0.103400
     19 C17          4.3600    -0.1980    -0.0730 c6         1 3BW      -0.111000
     20 O24          4.6590     1.9990     0.9050 o          1 3BW      -0.551100
     21 O20          7.0550    -1.2960     0.2180 os         1 3BW      -0.400600
     22 O26          4.2340     3.2380    -1.4350 oh         1 3BW      -0.385100
     23 O7          -3.6270    -1.8040     0.3310 os         1 3BW      -0.250200
     24 S15          1.8670     0.2650     1.0290 ss         1 3BW      -0.200000
     25 CL1         -8.0880     1.4370    -1.6500 cl         1 3BW      -0.111400
     26 H1          -2.7750    -0.2210     2.2630 ha         1 3BW       0.149000
     27 H2          -0.4750     0.5860     2.5220 ha         1 3BW       0.140500
     28 H3          -3.3910     0.6490    -0.8170 ha         1 3BW       0.150000
     29 H4          -5.2820     1.9610    -1.6300 ha         1 3BW       0.148000
     30 H5          -7.9870    -1.1290    -0.4000 ha         1 3BW       0.148000
     31 H6          -6.0890    -2.4550     0.4280 ha         1 3BW       0.150000
     32 H7           2.5150    -0.2790    -1.2280 h1         1 3BW       0.067700
     33 H8           2.7690    -1.6410    -0.1320 h1         1 3BW       0.067700
     34 H9           6.7520     0.3920     1.3750 h1         1 3BW       0.053450
     35 H10          6.7930    -1.1560     2.2150 h1         1 3BW       0.053450
     36 H11          7.1680    -1.2980    -1.7980 h1         1 3BW       0.053450
     37 H12          6.9440     0.3030    -1.0950 h1         1 3BW       0.053450
     38 H13          4.8680    -0.5060    -2.1970 hc         1 3BW       0.060450
     39 H14          4.8730    -1.9440    -1.2110 hc         1 3BW       0.060450
     40 H15          4.0560     1.3740    -2.1290 hn         1 3BW       0.329500
     41 H16         -1.6530    -2.2890    -1.3150 ha         1 3BW       0.149000
     42 H17          0.6410    -1.4910    -1.0750 ha         1 3BW       0.140500
     43 H18          4.6120    -1.7900     1.3350 hc         1 3BW       0.060450
     44 H19          4.4940    -0.2230     2.1080 hc         1 3BW       0.060450
     45 H20          5.1010     3.5850    -1.6790 ho         1 3BW       0.408000
     46 N25          4.3870     1.8880    -1.3250 ns         1 3BW      -0.449400
@<TRIPOS>BOND
     1     1     2 ar  
     2     1    16 ar  
     3     1    26 1   
     4     2     3 ar  
     5     2    27 1   
     6     3    15 ar  
     7     3    24 1   
     8     4     5 ar  
     9     4     9 ar  
    10     4    23 1   
    11     5     6 ar  
    12     5    28 1   
    13     6     7 ar  
    14     6    29 1   
    15     7     8 ar  
    16     7    25 1   
    17     8     9 ar  
    18     8    30 1   
    19     9    31 1   
    20    10    19 1   
    21    10    24 1   
    22    10    32 1   
    23    10    33 1   
    24    11    18 1   
    25    11    21 1   
    26    11    34 1   
    27    11    35 1   
    28    12    13 1   
    29    12    21 1   
    30    12    36 1   
    31    12    37 1   
    32    13    19 1   
    33    13    38 1   
    34    13    39 1   
    35    14    15 ar  
    36    14    16 ar  
    37    14    41 1   
    38    15    42 1   
    39    16    23 1   
    40    17    19 1   
    41    17    20 2   
    42    17    46 1   
    43    18    19 1   
    44    18    43 1   
    45    18    44 1   
    46    22    45 1   
    47    22    46 1   
    48    40    46 1   
@<TRIPOS>SUBSTRUCTURE
     1 3BW         1 TEMP              0 ****  ****    0 ROOT
