@<TRIPOS>MOLECULE
3BX
   63    66     1     0     0
SMALL
abcg2


@<TRIPOS>ATOM
      1 C1           5.8790     0.1760    -0.9680 ca         1 3BX      -0.102000
      2 C2           4.5030     0.3000    -0.8930 ca         1 3BX      -0.092000
      3 C3           3.7310    -0.7100    -0.3060 ca         1 3BX       0.030000
      4 C9          10.1210     0.0390    -0.7030 c6         1 3BX       0.126300
      5 C10         10.8150     1.3540    -0.4030 c6         1 3BX       0.153600
      6 C12          9.3880     1.7440     1.3890 c6         1 3BX       0.153600
      7 C13          8.6580     0.4410     1.1270 c6         1 3BX       0.126300
      8 C14          2.3150    -0.5900    -0.2320 cg         1 3BX      -0.107000
      9 C15          1.1110    -0.4960    -0.1770 ch         1 3BX      -0.101000
     10 C16         -0.3040    -0.3830    -0.1010 ca         1 3BX      -0.007000
     11 C19         -3.0910    -0.1560     0.0570 ca         1 3BX       0.154100
     12 C20         -2.3880     0.5340    -0.9290 ca         1 3BX      -0.175500
     13 C21         -1.0090     0.4180    -0.9990 ca         1 3BX      -0.049000
     14 C24         -6.6580     0.5810    -0.2400 c6         1 3BX      -0.122000
     15 C30         -7.0410    -0.9070    -0.2740 c          1 3BX       0.617100
     16 C4           4.3760    -1.8390     0.2050 ca         1 3BX      -0.092000
     17 C17         -1.0240    -1.0750     0.8820 ca         1 3BX      -0.049000
     18 C5           5.7550    -1.9510     0.1250 ca         1 3BX      -0.102000
     19 C18         -2.3960    -0.9640     0.9620 ca         1 3BX      -0.175500
     20 C6           6.5240    -0.9540    -0.4660 ca         1 3BX      -0.079300
     21 C25         -6.8490     1.2960     1.1090 c6         1 3BX      -0.107900
     22 C29         -7.5100     1.3350    -1.2720 c6         1 3BX      -0.107900
     23 C26         -8.3170     1.5040     1.4570 c6         1 3BX       0.150600
     24 C28         -8.9410     1.5150    -0.7950 c6         1 3BX       0.150600
     25 C23         -5.2000     0.6640    -0.6840 c3         1 3BX       0.169600
     26 N8           8.7330     0.1050    -0.2830 n3         1 3BX      -0.718600
     27 N32         -7.1510    -1.5210     0.9130 ns         1 3BX      -0.381400
     28 O31         -7.1920    -1.4960    -1.3300 o          1 3BX      -0.582100
     29 O27         -9.0060     2.1930     0.4400 os         1 3BX      -0.446000
     30 O11         10.7320     1.6830     0.9660 os         1 3BX      -0.450000
     31 O33         -7.5440    -2.8220     0.9750 oh         1 3BX      -0.417100
     32 O22         -4.4240    -0.1040     0.2140 os         1 3BX      -0.357100
     33 H1           6.4640     0.9690    -1.4140 ha         1 3BX       0.121000
     34 H2           4.0180     1.1820    -1.2890 ha         1 3BX       0.119000
     35 H3           8.3520    -1.9660     0.0060 h1         1 3BX       0.040700
     36 H4           8.2430    -1.3680    -1.6410 h1         1 3BX       0.040700
     37 H5          10.1670    -0.1480    -1.7790 h1         1 3BX       0.042700
     38 H6          10.6630    -0.7850    -0.2070 h1         1 3BX       0.042700
     39 H7          11.8730     1.2850    -0.6590 h1         1 3BX       0.050950
     40 H8          10.3700     2.1490    -1.0170 h1         1 3BX       0.050950
     41 H9           8.8610     2.5620     0.8780 h1         1 3BX       0.050950
     42 H10          9.3910     1.9630     2.4580 h1         1 3BX       0.050950
     43 H11          9.0840    -0.3600     1.7560 h1         1 3BX       0.042700
     44 H12          7.6130     0.5610     1.4240 h1         1 3BX       0.042700
     45 H13         -2.8930     1.1630    -1.6490 ha         1 3BX       0.122500
     46 H14         -0.4740     0.9570    -1.7700 ha         1 3BX       0.122000
     47 H15          3.7960    -2.6260     0.6680 ha         1 3BX       0.119000
     48 H16         -0.4980    -1.7020     1.5910 ha         1 3BX       0.122000
     49 H17          6.2400    -2.8300     0.5310 ha         1 3BX       0.121000
     50 H18         -2.9430    -1.4970     1.7280 ha         1 3BX       0.122500
     51 H19         -6.3350     0.7980     1.9340 hc         1 3BX       0.062450
     52 H20         -6.3720     2.2770     1.0230 hc         1 3BX       0.062450
     53 H21         -7.0620     2.3190    -1.4410 hc         1 3BX       0.062450
     54 H22         -7.5100     0.8170    -2.2320 hc         1 3BX       0.062450
     55 H23         -8.8060     0.5410     1.6620 h1         1 3BX       0.052700
     56 H24         -8.3980     2.1060     2.3630 h1         1 3BX       0.052700
     57 H25         -9.5020     2.1110    -1.5160 h1         1 3BX       0.052700
     58 H26         -9.4440     0.5390    -0.7220 h1         1 3BX       0.052700
     59 H27         -5.0920     0.2860    -1.7080 h1         1 3BX       0.051700
     60 H28         -4.8830     1.7130    -0.6760 h1         1 3BX       0.051700
     61 H30         -7.0410    -1.0700     1.8070 hn         1 3BX       0.344500
     62 H31         -6.7400    -3.3560     0.9260 ho         1 3BX       0.442000
     63 C7           8.0150    -1.1090    -0.6010 c3         1 3BX       0.213100
@<TRIPOS>BOND
     1     1     2 ar  
     2     1    20 ar  
     3     1    33 1   
     4     2     3 ar  
     5     2    34 1   
     6     3     8 1   
     7     3    16 ar  
     8     4     5 1   
     9     4    26 1   
    10     4    37 1   
    11     4    38 1   
    12     5    30 1   
    13     5    39 1   
    14     5    40 1   
    15     6     7 1   
    16     6    30 1   
    17     6    41 1   
    18     6    42 1   
    19     7    26 1   
    20     7    43 1   
    21     7    44 1   
    22     8     9 3   
    23     9    10 1   
    24    10    13 ar  
    25    10    17 ar  
    26    11    12 ar  
    27    11    19 ar  
    28    11    32 1   
    29    12    13 ar  
    30    12    45 1   
    31    13    46 1   
    32    14    15 1   
    33    14    21 1   
    34    14    22 1   
    35    14    25 1   
    36    15    27 1   
    37    15    28 2   
    38    16    18 ar  
    39    16    47 1   
    40    17    19 ar  
    41    17    48 1   
    42    18    20 ar  
    43    18    49 1   
    44    19    50 1   
    45    20    63 1   
    46    21    23 1   
    47    21    51 1   
    48    21    52 1   
    49    22    24 1   
    50    22    53 1   
    51    22    54 1   
    52    23    29 1   
    53    23    55 1   
    54    23    56 1   
    55    24    29 1   
    56    24    57 1   
    57    24    58 1   
    58    25    32 1   
    59    25    59 1   
    60    25    60 1   
    61    26    63 1   
    62    27    31 1   
    63    27    61 1   
    64    31    62 1   
    65    35    63 1   
    66    36    63 1   
@<TRIPOS>SUBSTRUCTURE
     1 3BX         1 TEMP              0 ****  ****    0 ROOT
