@<TRIPOS>MOLECULE
3BX
   63    66     1     0     0
SMALL
No Charge or Current Charge


@<TRIPOS>ATOM
      1 C1           5.9210    -0.0040    -1.4960 ca         1 3BX      -0.102000
      2 C2           4.5250     0.1120    -1.3700 ca         1 3BX      -0.092000
      3 C3           3.8300    -0.6940    -0.4500 ca         1 3BX       0.030000
      4 C9          10.3460     0.0880    -0.6480 c6         1 3BX       0.126300
      5 C10         11.0920     1.3560    -0.1340 c6         1 3BX       0.153600
      6 C12          9.4340     1.6840     1.5840 c6         1 3BX       0.153600
      7 C13          8.6510     0.4240     1.1060 c6         1 3BX       0.126300
      8 C14          2.4070    -0.5760    -0.3200 cg         1 3BX      -0.107000
      9 C15          1.1950    -0.4790    -0.2230 ch         1 3BX      -0.101000
     10 C16         -0.2220    -0.3670    -0.1250 ca         1 3BX      -0.007000
     11 C19         -3.0300    -0.1470     0.0690 ca         1 3BX       0.154100
     12 C20         -2.3400     0.4850    -0.9890 ca         1 3BX      -0.175500
     13 C21         -0.9410     0.3740    -1.0820 ca         1 3BX      -0.049000
     14 C24         -6.7210     0.5520    -0.2510 c6         1 3BX      -0.122000
     15 C30         -7.1130    -0.9640    -0.3310 c          1 3BX       0.617100
     16 C4           4.5380    -1.6160     0.3430 ca         1 3BX      -0.092000
     17 C17         -0.9110    -0.9970     0.9280 ca         1 3BX      -0.049000
     18 C5           5.9340    -1.7310     0.2160 ca         1 3BX      -0.102000
     19 C18         -2.3090    -0.8850     1.0210 ca         1 3BX      -0.175500
     20 C6           6.6340    -0.9260    -0.7040 ca         1 3BX      -0.079300
     21 C25         -6.8800     1.2040     1.1810 c6         1 3BX      -0.107900
     22 C29         -7.6380     1.3780    -1.2160 c6         1 3BX      -0.107900
     23 C26         -8.3540     1.4620     1.6100 c6         1 3BX       0.150600
     24 C28         -9.0840     1.5190    -0.6880 c6         1 3BX       0.150600
     25 C23         -5.2300     0.6580    -0.7050 c3         1 3BX       0.169600
     26 N8           8.8810     0.1450    -0.3480 n3         1 3BX      -0.718600
     27 N32         -7.6990    -1.5470     0.7900 ns         1 3BX      -0.381400
     28 O31         -6.8000    -1.6550    -1.2950 o          1 3BX      -0.582100
     29 O27         -9.0540     2.1920     0.5850 os         1 3BX      -0.446000
     30 O11         10.8430     1.5470     1.2800 os         1 3BX      -0.450000
     31 O33         -8.2830    -2.8720     0.7260 oh         1 3BX      -0.417100
     32 O22         -4.3990    -0.0740     0.2140 os         1 3BX      -0.357100
     33 H1           6.4530     0.6260    -2.2060 ha         1 3BX       0.121000
     34 H2           3.9870     0.8280    -1.9860 ha         1 3BX       0.119000
     35 H3           8.4920    -1.9440    -0.3120 h1         1 3BX       0.040700
     36 H4           8.3770    -1.2010    -1.9070 h1         1 3BX       0.040700
     37 H5          10.5100    -0.0030    -1.7320 h1         1 3BX       0.042700
     38 H6          10.7970    -0.7990    -0.1790 h1         1 3BX       0.042700
     39 H7          12.1730     1.2470    -0.2980 h1         1 3BX       0.050950
     40 H8          10.7490     2.2430    -0.6860 h1         1 3BX       0.050950
     41 H9           9.0400     2.5810     1.0860 h1         1 3BX       0.050950
     42 H10          9.3100     1.8120     2.6690 h1         1 3BX       0.050950
     43 H11          8.9650    -0.4370     1.7150 h1         1 3BX       0.042700
     44 H12          7.5810     0.5860     1.3050 h1         1 3BX       0.042700
     45 H13         -2.8670     1.0640    -1.7420 ha         1 3BX       0.122500
     46 H14         -0.4150     0.8640    -1.9000 ha         1 3BX       0.122000
     47 H15          4.0080    -2.2420     1.0570 ha         1 3BX       0.119000
     48 H16         -0.3640    -1.5720     1.6730 ha         1 3BX       0.122000
     49 H17          6.4710    -2.4450     0.8370 ha         1 3BX       0.121000
     50 H18         -2.8380    -1.3730     1.8360 ha         1 3BX       0.122500
     51 H19         -6.3730     0.5970     1.9450 hc         1 3BX       0.062450
     52 H20         -6.3600     2.1720     1.1930 hc         1 3BX       0.062450
     53 H21         -7.2210     2.3840    -1.3600 hc         1 3BX       0.062450
     54 H22         -7.6570     0.9140    -2.2130 hc         1 3BX       0.062450
     55 H23         -8.8920     0.5260     1.8100 h1         1 3BX       0.052700
     56 H24         -8.3710     2.0540     2.5360 h1         1 3BX       0.052700
     57 H25         -9.6830     2.1150    -1.3910 h1         1 3BX       0.052700
     58 H26         -9.5630     0.5350    -0.5790 h1         1 3BX       0.052700
     59 H27         -5.1260     0.2620    -1.7240 h1         1 3BX       0.051700
     60 H28         -4.9380     1.7160    -0.7230 h1         1 3BX       0.051700
     61 H30         -8.0030    -0.9620     1.5630 hn         1 3BX       0.344500
     62 H31         -7.8580    -3.3510     1.4770 ho         1 3BX       0.442000
     63 C7           8.1490    -1.0450    -0.8430 c3         1 3BX       0.213100
@<TRIPOS>BOND
     1     1     2 ar  
     2     1    20 ar  
     3     1    33 1   
     4     2     3 ar  
     5     2    34 1   
     6     3     8 1   
     7     3    16 ar  
     8     4     5 1   
     9     4    26 1   
    10     4    37 1   
    11     4    38 1   
    12     5    30 1   
    13     5    39 1   
    14     5    40 1   
    15     6     7 1   
    16     6    30 1   
    17     6    41 1   
    18     6    42 1   
    19     7    26 1   
    20     7    43 1   
    21     7    44 1   
    22     8     9 3   
    23     9    10 1   
    24    10    13 ar  
    25    10    17 ar  
    26    11    12 ar  
    27    11    19 ar  
    28    11    32 1   
    29    12    13 ar  
    30    12    45 1   
    31    13    46 1   
    32    14    15 1   
    33    14    21 1   
    34    14    22 1   
    35    14    25 1   
    36    15    27 1   
    37    15    28 2   
    38    16    18 ar  
    39    16    47 1   
    40    17    19 ar  
    41    17    48 1   
    42    18    20 ar  
    43    18    49 1   
    44    19    50 1   
    45    20    63 1   
    46    21    23 1   
    47    21    51 1   
    48    21    52 1   
    49    22    24 1   
    50    22    53 1   
    51    22    54 1   
    52    23    29 1   
    53    23    55 1   
    54    23    56 1   
    55    24    29 1   
    56    24    57 1   
    57    24    58 1   
    58    25    32 1   
    59    25    59 1   
    60    25    60 1   
    61    26    63 1   
    62    27    31 1   
    63    27    61 1   
    64    31    62 1   
    65    35    63 1   
    66    36    63 1   
@<TRIPOS>SUBSTRUCTURE
     1 3BX         1 TEMP              0 ****  ****    0 ROOT
