@<TRIPOS>MOLECULE
3BY
   19    19     1     0     0
SMALL
abcg2


@<TRIPOS>ATOM
      1 O          -24.2640   123.7880   383.9880 o          1 3BY      -0.727500
      2 C          -24.5270   122.7540   384.6340 c          1 3BY       0.725000
      3 OXT        -24.6810   122.6640   385.8680 o          1 3BY      -0.727500
      4 CA         -24.7580   121.4620   383.8230 c5         1 3BY       0.024500
      5 CB         -24.7170   120.1370   384.6060 c5         1 3BY      -0.087400
      6 CG         -24.4470   119.0780   383.5230 c5         1 3BY      -0.120400
      7 CD         -24.2100   119.9150   382.2430 c5         1 3BY       0.138800
      8 N          -23.8720   121.2640   382.6710 n3         1 3BY      -0.656600
      9 CN         -22.4640   121.3710   383.0130 c3         1 3BY       0.153100
     10 HA         -25.7720   121.5590   383.4040 h1         1 3BY       0.038700
     11 HB3        -25.6460   119.9570   385.1460 hc         1 3BY       0.043200
     12 HB2        -23.9190   120.1520   385.3510 hc         1 3BY       0.043200
     13 HG3        -25.2850   118.3920   383.3930 hc         1 3BY       0.018200
     14 HG2        -23.5760   118.4680   383.7670 hc         1 3BY       0.018200
     15 HD3        -25.1300   119.9500   381.6510 h1         1 3BY       0.027200
     16 HD2        -23.4300   119.5050   381.5990 h1         1 3BY       0.027200
     17 HN1        -22.2320   122.3900   383.3160 h1         1 3BY       0.021033
     18 HN2        -22.1270   120.7010   383.8180 h1         1 3BY       0.021033
     19 HN3        -21.8600   121.1470   382.1320 h1         1 3BY       0.021033
@<TRIPOS>BOND
     1     1     2 1   
     2     2     3 1   
     3     2     4 1   
     4     4     5 1   
     5     4     8 1   
     6     4    10 1   
     7     5     6 1   
     8     5    11 1   
     9     5    12 1   
    10     6     7 1   
    11     6    13 1   
    12     6    14 1   
    13     7     8 1   
    14     7    15 1   
    15     7    16 1   
    16     8     9 1   
    17     9    17 1   
    18     9    18 1   
    19     9    19 1   
@<TRIPOS>SUBSTRUCTURE
     1 3BY         1 TEMP              0 ****  ****    0 ROOT
