@<TRIPOS>MOLECULE
3BY
   19    19     1     0     0
SMALL
No Charge or Current Charge


@<TRIPOS>ATOM
      1 O          -25.1030   123.8520   384.3040 o          1 3BY      -0.727500
      2 C          -24.5680   122.8030   384.6430 c          1 3BY       0.725000
      3 OXT        -23.9090   122.7370   385.6750 o          1 3BY      -0.727500
      4 CA         -24.7950   121.5110   383.7410 c5         1 3BY       0.024500
      5 CB         -24.7900   120.1830   384.5720 c5         1 3BY      -0.087400
      6 CG         -24.4410   119.0880   383.5110 c5         1 3BY      -0.120400
      7 CD         -24.2250   119.8870   382.1900 c5         1 3BY       0.138800
      8 N          -23.7830   121.2160   382.6680 n3         1 3BY      -0.656600
      9 CN         -22.3560   121.3010   383.0710 c3         1 3BY       0.153100
     10 HA         -25.7840   121.6330   383.2770 h1         1 3BY       0.038700
     11 HB3        -25.7580   120.0040   385.0520 hc         1 3BY       0.043200
     12 HB2        -24.0370   120.1870   385.3680 hc         1 3BY       0.043200
     13 HG3        -25.2390   118.3450   383.4030 hc         1 3BY       0.018200
     14 HG2        -23.5340   118.5430   383.7970 hc         1 3BY       0.018200
     15 HD3        -25.1700   119.9730   381.6350 h1         1 3BY       0.027200
     16 HD2        -23.4910   119.4080   381.5260 h1         1 3BY       0.027200
     17 HN1        -22.1040   122.3230   383.3830 h1         1 3BY       0.021033
     18 HN2        -22.1260   120.6220   383.9020 h1         1 3BY       0.021033
     19 HN3        -21.7050   121.0380   382.2270 h1         1 3BY       0.021033
@<TRIPOS>BOND
     1     1     2 1   
     2     2     3 1   
     3     2     4 1   
     4     4     5 1   
     5     4     8 1   
     6     4    10 1   
     7     5     6 1   
     8     5    11 1   
     9     5    12 1   
    10     6     7 1   
    11     6    13 1   
    12     6    14 1   
    13     7     8 1   
    14     7    15 1   
    15     7    16 1   
    16     8     9 1   
    17     9    17 1   
    18     9    18 1   
    19     9    19 1   
@<TRIPOS>SUBSTRUCTURE
     1 3BY         1 TEMP              0 ****  ****    0 ROOT
