@<TRIPOS>MOLECULE
3BZ
   14    14     1     0     0
SMALL
No Charge or Current Charge


@<TRIPOS>ATOM
      1 Cl3         -2.9090    -0.9010     0.0250 cl         1 3BZ      -0.270000
      2 C3          -1.4370     0.0620    -0.0000 ca         1 3BZ       0.099000
      3 C4          -1.5210     1.4630    -0.0230 ca         1 3BZ      -0.138000
      4 C5          -0.3470     2.2310    -0.0430 ca         1 3BZ      -0.140000
      5 C6           0.9100     1.6000    -0.0400 ca         1 3BZ      -0.086000
      6 C2          -0.1840    -0.5730     0.0030 ca         1 3BZ      -0.078000
      7 C1           1.0100     0.1870    -0.0170 ca         1 3BZ      -0.130600
      8 C            2.3660    -0.4990    -0.0130 c          1 3BZ       0.714600
      9 O2           3.3740     0.1940    -0.0310 o          1 3BZ      -0.716500
     10 O1           2.4030    -1.7210     0.0070 o          1 3BZ      -0.716500
     11 H4          -2.4930     1.9500    -0.0260 ha         1 3BZ       0.099000
     12 H5          -0.4080     3.3170    -0.0610 ha         1 3BZ       0.089000
     13 H6           1.8080     2.2140    -0.0560 ha         1 3BZ       0.130000
     14 H2          -0.1460    -1.6590     0.0210 ha         1 3BZ       0.144000
@<TRIPOS>BOND
     1     1     2 1   
     2     2     3 ar  
     3     2     6 ar  
     4     3     4 ar  
     5     3    11 1   
     6     4     5 ar  
     7     4    12 1   
     8     5     7 ar  
     9     5    13 1   
    10     6     7 ar  
    11     6    14 1   
    12     7     8 1   
    13     8     9 1   
    14     8    10 1   
@<TRIPOS>SUBSTRUCTURE
     1 3BZ         1 TEMP              0 ****  ****    0 ROOT
