@<TRIPOS>MOLECULE
3BZ
   14    14     1     0     0
SMALL
bcc


@<TRIPOS>ATOM
      1 CL3         -2.8590    -0.8800     0.0250 cl         1 3BZ      -0.178400
      2 C3          -1.4070     0.0770    -0.0000 ca         1 3BZ       0.007400
      3 C4          -1.5110     1.4590    -0.0240 ca         1 3BZ      -0.156000
      4 C5          -0.3430     2.2090    -0.0430 ca         1 3BZ      -0.158000
      5 C6           0.8960     1.5850    -0.0400 ca         1 3BZ      -0.104000
      6 C2          -0.1780    -0.5600     0.0040 ca         1 3BZ      -0.096000
      7 C1           0.9910     0.1960    -0.0160 ca         1 3BZ      -0.130600
      8 C            2.3520    -0.4970    -0.0130 c          1 3BZ       0.925200
      9 O2           3.3500     0.2460    -0.0300 o          1 3BZ      -0.821800
     10 O1           2.3400    -1.7420     0.0040 o          1 3BZ      -0.821800
     11 H4          -2.4790     1.9420    -0.0270 ha         1 3BZ       0.117000
     12 H5          -0.4080     3.2890    -0.0610 ha         1 3BZ       0.107000
     13 H6           1.7990     2.1800    -0.0540 ha         1 3BZ       0.148000
     14 H2          -0.1180    -1.6390     0.0220 ha         1 3BZ       0.162000
@<TRIPOS>BOND
     1     1     2 1   
     2     2     3 ar  
     3     2     6 ar  
     4     3     4 ar  
     5     3    11 1   
     6     4     5 ar  
     7     4    12 1   
     8     5     7 ar  
     9     5    13 1   
    10     6     7 ar  
    11     6    14 1   
    12     7     8 1   
    13     8     9 1   
    14     8    10 1   
@<TRIPOS>SUBSTRUCTURE
     1 3BZ         1 TEMP              0 ****  ****    0 ROOT
