@<TRIPOS>MOLECULE
3C0
   47    50     1     0     0
SMALL
No Charge or Current Charge


@<TRIPOS>ATOM
      1 C10          2.1230     1.9880    -1.3660 c3         1 3C0       0.173600
      2 C13         -1.0890    -1.3000    -0.2120 c6         1 3C0       0.172300
      3 C15         -3.1090     0.2440    -0.8250 c5         1 3C0       0.126800
      4 C17         -2.3250     0.9050     1.4030 cx         1 3C0       0.081800
      5 C22         -2.9610    -0.5160     1.4330 c5         1 3C0       0.126800
      6 N19         -3.9990    -0.4780     0.2520 n4         1 3C0      -0.518000
      7 C14         -2.0170    -0.7440    -1.3450 c6         1 3C0      -0.114900
      8 C16         -2.4180     1.3840    -0.0200 cx         1 3C0       0.081800
      9 O18         -3.1280     2.0580     1.0490 op         1 3C0      -0.396000
     10 C23         -1.8560    -1.5760     1.1180 c6         1 3C0      -0.114900
     11 O12          0.0010    -0.3940     0.0550 os         1 3C0      -0.451100
     12 C02          1.0340    -0.2350    -0.8340 c          1 3C0       0.587100
     13 O01          1.1790    -0.9120    -1.8440 o          1 3C0      -0.455000
     14 C03          2.0380     0.8240    -0.3550 c3         1 3C0      -0.066400
     15 O11          0.8520     2.6440    -1.4720 oh         1 3C0      -0.676000
     16 C04          3.4010     0.1900    -0.0480 ca         1 3C0      -0.101300
     17 C05          3.7850    -0.0290     1.2920 ca         1 3C0      -0.090000
     18 C06          5.0270    -0.6130     1.5910 ca         1 3C0      -0.102500
     19 C07          5.8980    -0.9870     0.5550 ca         1 3C0      -0.086000
     20 C08          5.5220    -0.7790    -0.7820 ca         1 3C0      -0.102500
     21 C09          4.2800    -0.1950    -1.0830 ca         1 3C0      -0.090000
     22 H1           2.8880     2.6990    -1.0230 h1         1 3C0       0.040700
     23 H2           2.4370     1.6080    -2.3470 h1         1 3C0       0.040700
     24 H3          -0.6470    -2.2520    -0.5480 h1         1 3C0       0.096700
     25 H4          -3.7410     0.6060    -1.6420 hx         1 3C0       0.122200
     26 H5          -1.4220     1.1230     1.9750 h1         1 3C0       0.164700
     27 H6          -5.9330     0.3320    -0.2900 hx         1 3C0       0.097533
     28 H7          -5.8220    -0.2350     1.3950 hx         1 3C0       0.097533
     29 H8          -5.0870     1.3090     0.9250 hx         1 3C0       0.097533
     30 H9          -3.6630    -2.5170    -0.4560 hx         1 3C0       0.097533
     31 H10         -5.0530    -2.3310     0.6400 hx         1 3C0       0.097533
     32 H11         -5.1630    -1.7630    -1.0480 hx         1 3C0       0.097533
     33 H12         -3.4780    -0.7460     2.3700 hx         1 3C0       0.122200
     34 H13         -1.4160    -0.2350    -2.1090 hc         1 3C0       0.095200
     35 H14         -2.4880    -1.5770    -1.8810 hc         1 3C0       0.095200
     36 H15         -1.5820     1.9400    -0.4470 h1         1 3C0       0.164700
     37 H16         -2.2920    -2.5820     1.0980 hc         1 3C0       0.095200
     38 H17         -1.1370    -1.6020     1.9480 hc         1 3C0       0.095200
     39 H18          1.6350     1.2500     0.5700 hc         1 3C0       0.091700
     40 H19          0.9750     3.4110    -2.0760 ho         1 3C0       0.455000
     41 H20          3.1200     0.2520     2.1060 ha         1 3C0       0.109000
     42 H21          5.3150    -0.7770     2.6280 ha         1 3C0       0.123500
     43 H22          6.8600    -1.4400     0.7870 ha         1 3C0       0.125000
     44 H23          6.1930    -1.0730    -1.5870 ha         1 3C0       0.123500
     45 H24          4.0030    -0.0520    -2.1250 ha         1 3C0       0.109000
     46 C20         -5.2970     0.2940     0.5970 c3         1 3C0       0.079900
     47 C21         -4.5020    -1.8750    -0.1860 c3         1 3C0       0.079900
@<TRIPOS>BOND
     1     1    14 1   
     2     1    15 1   
     3     1    22 1   
     4     1    23 1   
     5     2     7 1   
     6     2    10 1   
     7     2    11 1   
     8     2    24 1   
     9     3     6 1   
    10     3     7 1   
    11     3     8 1   
    12     3    25 1   
    13     4     5 1   
    14     4     8 1   
    15     4     9 1   
    16     4    26 1   
    17     5     6 1   
    18     5    10 1   
    19     5    33 1   
    20     6    46 1   
    21     6    47 1   
    22     7    34 1   
    23     7    35 1   
    24     8     9 1   
    25     8    36 1   
    26    10    37 1   
    27    10    38 1   
    28    11    12 1   
    29    12    13 2   
    30    12    14 1   
    31    14    16 1   
    32    14    39 1   
    33    15    40 1   
    34    16    17 ar  
    35    16    21 ar  
    36    17    18 ar  
    37    17    41 1   
    38    18    19 ar  
    39    18    42 1   
    40    19    20 ar  
    41    19    43 1   
    42    20    21 ar  
    43    20    44 1   
    44    21    45 1   
    45    27    46 1   
    46    28    46 1   
    47    29    46 1   
    48    30    47 1   
    49    31    47 1   
    50    32    47 1   
@<TRIPOS>SUBSTRUCTURE
     1 3C0         1 TEMP              0 ****  ****    0 ROOT
