@<TRIPOS>MOLECULE
3C0
   47    50     1     0     0
SMALL
abcg2


@<TRIPOS>ATOM
      1 C10          1.9280     1.7220    -1.0350 c3         1 3C0       0.173600
      2 C13         -1.2110    -1.0630    -0.6840 c6         1 3C0       0.172300
      3 C15         -3.2780     0.4450    -0.8350 c5         1 3C0       0.126800
      4 C17         -2.2590     0.7970     1.2960 cx         1 3C0       0.081800
      5 C22         -2.8630    -0.5910     1.2250 c5         1 3C0       0.126800
      6 N19         -3.9640    -0.4530     0.1830 n4         1 3C0      -0.518000
      7 C14         -2.2410    -0.3740    -1.5970 c6         1 3C0      -0.114900
      8 C16         -2.5100     1.4360     0.0180 cx         1 3C0       0.081800
      9 O18         -3.1440     1.8950     1.1970 op         1 3C0      -0.396000
     10 C23         -1.7710    -1.5100     0.6810 c6         1 3C0      -0.114900
     11 O12         -0.1510    -0.1130    -0.5060 os         1 3C0      -0.451100
     12 C02          1.0600    -0.5380    -0.1790 c          1 3C0       0.587100
     13 O01          1.3440    -1.6990    -0.0350 o          1 3C0      -0.455000
     14 C03          2.0260     0.6170     0.0270 c3         1 3C0      -0.066400
     15 O11          0.7950     2.5200    -0.8060 oh         1 3C0      -0.676000
     16 C04          3.4380     0.1020     0.1330 ca         1 3C0      -0.101300
     17 C05          4.1250     0.1690     1.3400 ca         1 3C0      -0.090000
     18 C06          5.4370    -0.2810     1.4360 ca         1 3C0      -0.102500
     19 C07          6.0780    -0.8000     0.3210 ca         1 3C0      -0.086000
     20 C08          5.3990    -0.8690    -0.8900 ca         1 3C0      -0.102500
     21 C09          4.0890    -0.4230    -0.9820 ca         1 3C0      -0.090000
     22 H1           2.8460     2.3170    -0.9630 h1         1 3C0       0.040700
     23 H2           1.9220     1.2740    -2.0370 h1         1 3C0       0.040700
     24 H3          -0.8210    -1.9400    -1.2040 h1         1 3C0       0.096700
     25 H4          -4.0330     0.8710    -1.4950 hx         1 3C0       0.122200
     26 H5          -1.3620     0.9340     1.8880 h1         1 3C0       0.164700
     27 H6          -5.9690     0.1480    -0.0530 hx         1 3C0       0.097533
     28 H7          -5.5630    -0.4880     1.5530 hx         1 3C0       0.097533
     29 H8          -5.0710     1.1510     1.0970 hx         1 3C0       0.097533
     30 H9          -3.6030    -2.3450    -0.8000 hx         1 3C0       0.097533
     31 H10         -4.8720    -2.3340     0.4220 hx         1 3C0       0.097533
     32 H11         -5.1440    -1.5670    -1.1560 hx         1 3C0       0.097533
     33 H12         -3.2980    -0.9720     2.1480 hx         1 3C0       0.122200
     34 H13         -1.7170     0.2960    -2.2810 hc         1 3C0       0.095200
     35 H14         -2.7300    -1.1080    -2.2370 hc         1 3C0       0.095200
     36 H15         -1.8140     2.1070    -0.4730 h1         1 3C0       0.164700
     37 H16         -2.1340    -2.5350     0.6150 hc         1 3C0       0.095200
     38 H17         -0.9730    -1.5500     1.4240 hc         1 3C0       0.095200
     39 H18          1.7510     1.0700     0.9880 hc         1 3C0       0.091700
     40 H19          0.6850     3.1040    -1.5620 ho         1 3C0       0.455000
     41 H20          3.6340     0.5750     2.2160 ha         1 3C0       0.109000
     42 H21          5.9560    -0.2240     2.3840 ha         1 3C0       0.123500
     43 H22          7.0990    -1.1500     0.3940 ha         1 3C0       0.125000
     44 H23          5.8910    -1.2720    -1.7660 ha         1 3C0       0.123500
     45 H24          3.5740    -0.4880    -1.9330 ha         1 3C0       0.109000
     46 C20         -5.2250     0.1460     0.7380 c3         1 3C0       0.079900
     47 C21         -4.4110    -1.7640    -0.3790 c3         1 3C0       0.079900
@<TRIPOS>BOND
     1     1    14 1   
     2     1    15 1   
     3     1    22 1   
     4     1    23 1   
     5     2     7 1   
     6     2    10 1   
     7     2    11 1   
     8     2    24 1   
     9     3     6 1   
    10     3     7 1   
    11     3     8 1   
    12     3    25 1   
    13     4     5 1   
    14     4     8 1   
    15     4     9 1   
    16     4    26 1   
    17     5     6 1   
    18     5    10 1   
    19     5    33 1   
    20     6    46 1   
    21     6    47 1   
    22     7    34 1   
    23     7    35 1   
    24     8     9 1   
    25     8    36 1   
    26    10    37 1   
    27    10    38 1   
    28    11    12 1   
    29    12    13 2   
    30    12    14 1   
    31    14    16 1   
    32    14    39 1   
    33    15    40 1   
    34    16    17 ar  
    35    16    21 ar  
    36    17    18 ar  
    37    17    41 1   
    38    18    19 ar  
    39    18    42 1   
    40    19    20 ar  
    41    19    43 1   
    42    20    21 ar  
    43    20    44 1   
    44    21    45 1   
    45    27    46 1   
    46    28    46 1   
    47    29    46 1   
    48    30    47 1   
    49    31    47 1   
    50    32    47 1   
@<TRIPOS>SUBSTRUCTURE
     1 3C0         1 TEMP              0 ****  ****    0 ROOT
