@<TRIPOS>MOLECULE
3C2
   25    26     1     0     0
SMALL
No Charge or Current Charge


@<TRIPOS>ATOM
      1 CAH        -24.6730   -18.6880    18.2550 c6         1 3C2       0.468000
      2 NAJ        -24.0220   -18.6080    16.9880 n7         1 3C2      -0.848300
      3 SAN        -23.3140   -17.1160    16.7470 sy         1 3C2       1.108200
      4 OAB        -24.4140   -16.1920    16.4450 o          1 3C2      -0.520500
      5 OAC        -22.2540   -17.3550    15.7600 o          1 3C2      -0.520500
      6 CAL        -22.5610   -16.6940    18.3490 ca         1 3C2       0.038900
      7 NAI        -21.8140   -15.5490    18.4750 nb         1 3C2      -0.552000
      8 CAE        -21.2540   -15.2940    19.6800 ca         1 3C2       0.273900
      9 CAD        -21.4090   -16.1510    20.7840 ca         1 3C2      -0.070000
     10 CAF        -22.1760   -17.3240    20.6450 ca         1 3C2      -0.168000
     11 CAK        -22.7710   -17.6110    19.4000 ca         1 3C2       0.362000
     12 NAM        -23.5620   -18.7690    19.1940 nh         1 3C2      -0.868400
     13 CAG        -23.4600   -19.9790    20.0450 c3         1 3C2       0.231800
     14 CAA        -22.1040   -20.6900    19.9140 c3         1 3C2      -0.116100
     15 HAH1       -25.3140   -17.8090    18.4450 h2         1 3C2       0.085200
     16 HAH2       -25.2890   -19.6020    18.2960 h2         1 3C2       0.085200
     17 HAJ1       -23.2030   -19.1910    17.1180 hn         1 3C2       0.483000
     18 HAE1       -20.6660   -14.3800    19.7620 h4         1 3C2       0.032100
     19 HAD1       -20.9410   -15.9030    21.7320 ha         1 3C2       0.123000
     20 HAF1       -22.3060   -17.9830    21.4970 ha         1 3C2       0.120000
     21 HAG1       -23.6360   -19.7170    21.0970 h1         1 3C2       0.054200
     22 HAG2       -24.2430   -20.7010    19.7770 h1         1 3C2       0.054200
     23 HAA1       -22.0840   -21.5860    20.5440 hc         1 3C2       0.047033
     24 HAA2       -21.9300   -20.9950    18.8750 hc         1 3C2       0.047033
     25 HAA3       -21.2830   -20.0330    20.2250 hc         1 3C2       0.047033
@<TRIPOS>BOND
     1     1     2 1   
     2     1    12 1   
     3     1    15 1   
     4     1    16 1   
     5     2     3 1   
     6     2    17 1   
     7     3     4 2   
     8     3     5 2   
     9     3     6 1   
    10     6     7 ar  
    11     6    11 ar  
    12     7     8 ar  
    13     8     9 ar  
    14     8    18 1   
    15     9    10 ar  
    16     9    19 1   
    17    10    11 ar  
    18    10    20 1   
    19    11    12 1   
    20    12    13 1   
    21    13    14 1   
    22    13    21 1   
    23    13    22 1   
    24    14    23 1   
    25    14    24 1   
    26    14    25 1   
@<TRIPOS>SUBSTRUCTURE
     1 3C2         1 TEMP              0 ****  ****    0 ROOT
