@<TRIPOS>MOLECULE
3C2
   25    26     1     0     0
SMALL
abcg2


@<TRIPOS>ATOM
      1 CAH        -24.3170   -18.9560    18.0310 c6         1 3C2       0.468000
      2 NAJ        -23.6970   -18.4770    16.8050 n7         1 3C2      -0.848300
      3 SAN        -23.4330   -16.8490    16.8110 sy         1 3C2       1.108200
      4 OAB        -24.7210   -16.1970    16.8340 o          1 3C2      -0.520500
      5 OAC        -22.5250   -16.5490    15.7330 o          1 3C2      -0.520500
      6 CAL        -22.6340   -16.6340    18.3800 ca         1 3C2       0.038900
      7 NAI        -21.9450   -15.5070    18.5050 nb         1 3C2      -0.552000
      8 CAE        -21.2760   -15.2840    19.6290 ca         1 3C2       0.273900
      9 CAD        -21.2660   -16.2220    20.6630 ca         1 3C2      -0.070000
     10 CAF        -21.9740   -17.3970    20.5350 ca         1 3C2      -0.168000
     11 CAK        -22.7290   -17.6490    19.3660 ca         1 3C2       0.362000
     12 NAM        -23.4680   -18.7830    19.2040 nh         1 3C2      -0.868400
     13 CAG        -23.5770   -19.8010    20.2480 c3         1 3C2       0.231800
     14 CAA        -22.4490   -20.8250    20.1950 c3         1 3C2      -0.116100
     15 HAH1       -25.2670   -18.4280    18.1540 h2         1 3C2       0.085200
     16 HAH2       -24.5240   -20.0160    17.9100 h2         1 3C2       0.085200
     17 HAJ1       -22.8440   -18.9760    16.5600 hn         1 3C2       0.483000
     18 HAE1       -20.7270   -14.3540    19.7040 h4         1 3C2       0.032100
     19 HAD1       -20.6960   -16.0300    21.5620 ha         1 3C2       0.123000
     20 HAF1       -21.9490   -18.1220    21.3330 ha         1 3C2       0.120000
     21 HAG1       -23.6200   -19.3160    21.2240 h1         1 3C2       0.054200
     22 HAG2       -24.5400   -20.2950    20.1120 h1         1 3C2       0.054200
     23 HAA1       -22.5830   -21.5710    20.9810 hc         1 3C2       0.047033
     24 HAA2       -22.4440   -21.3370    19.2310 hc         1 3C2       0.047033
     25 HAA3       -21.4780   -20.3480    20.3370 hc         1 3C2       0.047033
@<TRIPOS>BOND
     1     1     2 1   
     2     1    12 1   
     3     1    15 1   
     4     1    16 1   
     5     2     3 1   
     6     2    17 1   
     7     3     4 2   
     8     3     5 2   
     9     3     6 1   
    10     6     7 ar  
    11     6    11 ar  
    12     7     8 ar  
    13     8     9 ar  
    14     8    18 1   
    15     9    10 ar  
    16     9    19 1   
    17    10    11 ar  
    18    10    20 1   
    19    11    12 1   
    20    12    13 1   
    21    13    14 1   
    22    13    21 1   
    23    13    22 1   
    24    14    23 1   
    25    14    24 1   
    26    14    25 1   
@<TRIPOS>SUBSTRUCTURE
     1 3C2         1 TEMP              0 ****  ****    0 ROOT
