@<TRIPOS>MOLECULE
3C3
   35    37     1     0     0
SMALL
abcg2


@<TRIPOS>ATOM
      1 N16          1.3420    -2.9950     0.7190 nv         1 3C3      -1.060000
      2 C8           2.2200    -2.0510     0.3520 cc         1 3C3       0.267000
      3 N10          3.5970    -2.3540     0.3890 na         1 3C3      -0.086300
      4 O14          4.2140    -1.0960     0.2170 os         1 3C3      -0.252400
      5 N12          3.3310    -0.2740    -0.5070 na         1 3C3      -0.015300
      6 C4           2.0500    -0.7860    -0.1040 cd         1 3C3      -0.420500
      7 C1           0.8160    -0.0710    -0.1670 cd         1 3C3       0.560000
      8 N3          -0.3700    -0.6420     0.0130 nc         1 3C3      -0.790000
      9 N7           0.6460     1.2420    -0.3950 na         1 3C3      -0.046700
     10 C18          1.6260     2.3040    -0.4920 c3         1 3C3       0.090600
     11 C19          2.0960     2.7810     0.8740 c3         1 3C3      -0.097400
     12 C20          3.1250     3.8950     0.7530 c3         1 3C3      -0.086100
     13 N5          -0.6660     1.5510    -0.3300 nd         1 3C3      -0.513800
     14 C2          -1.2390     0.3940    -0.0840 cc         1 3C3       0.644500
     15 C6          -2.6570     0.2250     0.0460 cc         1 3C3      -0.356500
     16 N13         -3.5740     1.3220    -0.0930 na         1 3C3       0.000700
     17 O15         -4.7350     0.8100     0.5240 os         1 3C3      -0.264400
     18 N11         -4.7320    -0.5940     0.3840 na         1 3C3      -0.079300
     19 C9          -3.3570    -0.9050     0.2610 cd         1 3C3       0.214000
     20 N17         -2.9900    -2.2080     0.3100 nv         1 3C3      -1.053000
     21 H161         0.3730    -2.7160     0.7360 hn         1 3C3       0.498500
     22 H162         1.6230    -3.6570     1.4250 hn         1 3C3       0.498500
     23 H10          3.8600    -2.9640    -0.3900 hn         1 3C3       0.276000
     24 H12          3.4890    -0.4800    -1.4970 hn         1 3C3       0.239000
     25 H181         1.1560     3.1160    -1.0470 h1         1 3C3       0.070700
     26 H182         2.4710     1.9510    -1.0800 h1         1 3C3       0.070700
     27 H191         2.5270     1.9360     1.4170 hc         1 3C3       0.059200
     28 H192         1.2340     3.1250     1.4510 hc         1 3C3       0.059200
     29 H201         3.4530     4.2320     1.7360 hc         1 3C3       0.036367
     30 H202         4.0080     3.5590     0.2060 hc         1 3C3       0.036367
     31 H203         2.7180     4.7590     0.2250 hc         1 3C3       0.036367
     32 H13         -3.8010     1.4610    -1.0810 hn         1 3C3       0.241000
     33 H11         -5.2350    -0.8450    -0.4720 hn         1 3C3       0.268000
     34 H171        -1.9960    -2.3630     0.2620 hn         1 3C3       0.477000
     35 H172        -3.4580    -2.7800     0.9960 hn         1 3C3       0.477000
@<TRIPOS>BOND
     1     1     2 1   
     2     1    21 1   
     3     1    22 1   
     4     2     3 1   
     5     2     6 2   
     6     3     4 1   
     7     3    23 1   
     8     4     5 1   
     9     5     6 1   
    10     5    24 1   
    11     6     7 1   
    12     7     8 2   
    13     7     9 1   
    14     8    14 1   
    15     9    10 1   
    16     9    13 1   
    17    10    11 1   
    18    10    25 1   
    19    10    26 1   
    20    11    12 1   
    21    11    27 1   
    22    11    28 1   
    23    12    29 1   
    24    12    30 1   
    25    12    31 1   
    26    13    14 2   
    27    14    15 1   
    28    15    16 1   
    29    15    19 2   
    30    16    17 1   
    31    16    32 1   
    32    17    18 1   
    33    18    19 1   
    34    18    33 1   
    35    19    20 1   
    36    20    34 1   
    37    20    35 1   
@<TRIPOS>SUBSTRUCTURE
     1 3C3         1 TEMP              0 ****  ****    0 ROOT
