@<TRIPOS>MOLECULE
3C3
   35    37     1     0     0
SMALL
No Charge or Current Charge


@<TRIPOS>ATOM
      1 N16          1.3120    -3.1660     0.4120 nv         1 3C3      -1.060000
      2 C8           2.2030    -2.1640     0.2450 cc         1 3C3       0.267000
      3 N10          3.5750    -2.3530     0.2870 na         1 3C3      -0.086300
      4 O14          4.3560    -1.1910     0.0720 os         1 3C3      -0.252400
      5 N12          3.3060    -0.2820    -0.0950 na         1 3C3      -0.015300
      6 C4           2.0290    -0.8190     0.0100 cd         1 3C3      -0.420500
      7 C1           0.7650    -0.1250    -0.0900 cd         1 3C3       0.560000
      8 N3          -0.4160    -0.6910     0.0510 nc         1 3C3      -0.790000
      9 N7           0.5930     1.2390    -0.3380 na         1 3C3      -0.046700
     10 C18          1.6000     2.2910    -0.5690 c3         1 3C3       0.090600
     11 C19          2.1860     2.8680     0.7400 c3         1 3C3      -0.097400
     12 C20          3.2720     3.9330     0.4930 c3         1 3C3      -0.086100
     13 N5          -0.7420     1.5370    -0.3540 nd         1 3C3      -0.513800
     14 C2          -1.2770     0.3530    -0.1190 cc         1 3C3       0.644500
     15 C6          -2.6960     0.1600    -0.0410 cc         1 3C3      -0.356500
     16 N13         -3.6400     1.1750    -0.1910 na         1 3C3       0.000700
     17 O15         -4.9870     0.7660    -0.0680 os         1 3C3      -0.264400
     18 N11         -4.7510    -0.6000     0.1720 na         1 3C3      -0.079300
     19 C9          -3.4270    -0.9870     0.1880 cd         1 3C3       0.214000
     20 N17         -3.0470    -2.2740     0.3910 nv         1 3C3      -1.053000
     21 H161         0.3370    -2.8860     0.5090 hn         1 3C3       0.498500
     22 H162         1.5930    -4.0270     0.8780 hn         1 3C3       0.498500
     23 H10          4.1740    -3.1610     0.3840 hn         1 3C3       0.276000
     24 H12          3.6840     0.6520    -0.2130 hn         1 3C3       0.239000
     25 H181         1.1260     3.1060    -1.1320 h1         1 3C3       0.070700
     26 H182         2.3990     1.8920    -1.2040 h1         1 3C3       0.070700
     27 H191         2.6090     2.0590     1.3460 hc         1 3C3       0.059200
     28 H192         1.3750     3.3130     1.3290 hc         1 3C3       0.059200
     29 H201         3.6530     4.3180     1.4470 hc         1 3C3       0.036367
     30 H202         4.1140     3.5080    -0.0660 hc         1 3C3       0.036367
     31 H203         2.8660     4.7770    -0.0790 hc         1 3C3       0.036367
     32 H13         -3.5950     2.1750    -0.3640 hn         1 3C3       0.241000
     33 H11         -5.6290    -1.0940     0.2550 hn         1 3C3       0.268000
     34 H171        -2.0530    -2.4610     0.5080 hn         1 3C3       0.477000
     35 H172        -3.7020    -2.9600     0.7630 hn         1 3C3       0.477000
@<TRIPOS>BOND
     1     1     2 1   
     2     1    21 1   
     3     1    22 1   
     4     2     3 1   
     5     2     6 2   
     6     3     4 1   
     7     3    23 1   
     8     4     5 1   
     9     5     6 1   
    10     5    24 1   
    11     6     7 1   
    12     7     8 2   
    13     7     9 1   
    14     8    14 1   
    15     9    10 1   
    16     9    13 1   
    17    10    11 1   
    18    10    25 1   
    19    10    26 1   
    20    11    12 1   
    21    11    27 1   
    22    11    28 1   
    23    12    29 1   
    24    12    30 1   
    25    12    31 1   
    26    13    14 2   
    27    14    15 1   
    28    15    16 1   
    29    15    19 2   
    30    16    17 1   
    31    16    32 1   
    32    17    18 1   
    33    18    19 1   
    34    18    33 1   
    35    19    20 1   
    36    20    34 1   
    37    20    35 1   
@<TRIPOS>SUBSTRUCTURE
     1 3C3         1 TEMP              0 ****  ****    0 ROOT
