@<TRIPOS>MOLECULE
3C4
   18    18     1     0     0
SMALL
abcg2


@<TRIPOS>ATOM
      1 O2           2.4210    -0.7180     1.2700 o          1 3C4      -0.725000
      2 C            3.0400    -0.5390     0.2030 c          1 3C4       0.723000
      3 O1           4.2290    -0.8280    -0.0370 o          1 3C4      -0.725000
      4 CG           2.2550     0.1070    -0.9700 c3         1 3C4      -0.187100
      5 CA           0.8330     0.4450    -0.6560 ca         1 3C4      -0.015300
      6 CD2          0.4010     1.7610    -0.5190 ca         1 3C4      -0.090000
      7 CE2         -0.9120     2.0720    -0.2000 ca         1 3C4      -0.149000
      8 CZ          -1.8470     1.0640     0.0030 ca         1 3C4       0.108100
      9 OH          -3.1000     1.4130     0.3380 oh         1 3C4      -0.550100
     10 CE1         -1.4170    -0.2550    -0.1430 ca         1 3C4       0.033000
     11 CD1         -0.1070    -0.5620    -0.4650 ca         1 3C4      -0.043000
     12 HG1          2.7850     1.0130    -1.2810 hc         1 3C4       0.032700
     13 HG2          2.3040    -0.5690    -1.8300 hc         1 3C4       0.032700
     14 HD2          1.1050     2.5720    -0.6630 ha         1 3C4       0.108000
     15 HE2         -1.2240     3.1050    -0.1000 ha         1 3C4       0.109000
     16 HOH         -3.6720     0.6380     0.3960 ho         1 3C4       0.462000
     17 HD1          0.1790    -1.6010    -0.5700 ha         1 3C4       0.134000
     18 CL          -2.5730    -1.5350     0.0940 cl         1 3C4      -0.257000
@<TRIPOS>BOND
     1     1     2 1   
     2     2     3 1   
     3     2     4 1   
     4     4     5 1   
     5     4    12 1   
     6     4    13 1   
     7     5     6 ar  
     8     5    11 ar  
     9     6     7 ar  
    10     6    14 1   
    11     7     8 ar  
    12     7    15 1   
    13     8     9 1   
    14     8    10 ar  
    15     9    16 1   
    16    10    11 ar  
    17    10    18 1   
    18    11    17 1   
@<TRIPOS>SUBSTRUCTURE
     1 3C4         1 TEMP              0 ****  ****    0 ROOT
