@<TRIPOS>MOLECULE
3C4
   18    18     1     0     0
SMALL
No Charge or Current Charge


@<TRIPOS>ATOM
      1 O2           3.5470     0.5470     0.9710 o          1 3C4      -0.725000
      2 C            3.0580    -0.3050     0.2440 c          1 3C4       0.723000
      3 O1           3.0280    -1.4940     0.5220 o          1 3C4      -0.725000
      4 CG           2.3050     0.1620    -1.0110 c3         1 3C4      -0.187100
      5 CA           0.8480     0.4470    -0.6570 ca         1 3C4      -0.015300
      6 CD2          0.4360     1.7530    -0.3230 ca         1 3C4      -0.090000
      7 CE2         -0.9070     2.0140     0.0020 ca         1 3C4      -0.149000
      8 CZ          -1.8480     0.9730    -0.0020 ca         1 3C4       0.108100
      9 OH          -3.1500     1.2380     0.3160 oh         1 3C4      -0.550100
     10 CE1         -1.4430    -0.3360    -0.3330 ca         1 3C4       0.033000
     11 CD1         -0.1010    -0.5960    -0.6580 ca         1 3C4      -0.043000
     12 HG1          2.7380     1.0980    -1.3840 hc         1 3C4       0.032700
     13 HG2          2.3010    -0.6340    -1.7660 hc         1 3C4       0.032700
     14 HD2          1.1580     2.5670    -0.3150 ha         1 3C4       0.108000
     15 HE2         -1.2160     3.0250     0.2580 ha         1 3C4       0.109000
     16 HOH         -3.6480     0.3930     0.2590 ho         1 3C4       0.462000
     17 HD1          0.2040    -1.6090    -0.9100 ha         1 3C4       0.134000
     18 Cl          -2.6120    -1.6590    -0.3420 cl         1 3C4      -0.257000
@<TRIPOS>BOND
     1     1     2 1   
     2     2     3 1   
     3     2     4 1   
     4     4     5 1   
     5     4    12 1   
     6     4    13 1   
     7     5     6 ar  
     8     5    11 ar  
     9     6     7 ar  
    10     6    14 1   
    11     7     8 ar  
    12     7    15 1   
    13     8     9 1   
    14     8    10 ar  
    15     9    16 1   
    16    10    11 ar  
    17    10    18 1   
    18    11    17 1   
@<TRIPOS>SUBSTRUCTURE
     1 3C4         1 TEMP              0 ****  ****    0 ROOT
