@<TRIPOS>MOLECULE
3C5
   29    30     1     0     0
SMALL
abcg2


@<TRIPOS>ATOM
      1 C10          1.8770    -0.0750     0.0590 cp         1 3C5      -0.082000
      2 C01         -5.2050     1.5480    -0.0420 c3         1 3C5       0.144100
      3 N02         -4.0980     0.7080     0.3670 n7         1 3C5      -0.860400
      4 C04         -1.8920    -0.1970    -0.1730 ca         1 3C5      -0.089300
      5 C09         -0.5780     0.2470    -0.2380 ca         1 3C5      -0.096000
      6 C08          0.4910    -0.5730     0.1290 cp         1 3C5      -0.038000
      7 C07          0.2210    -1.8660     0.5710 ca         1 3C5      -0.096000
      8 C06         -1.0900    -2.3180     0.6450 ca         1 3C5      -0.116000
      9 C05         -2.1410    -1.4920     0.2800 ca         1 3C5      -0.080000
     10 C15          2.1910     1.2380     0.4160 ca         1 3C5       0.343900
     11 N14          3.4140     1.7470     0.3770 nb         1 3C5      -0.666000
     12 C13          4.4050     0.9600    -0.0230 ca         1 3C5       0.334900
     13 C12          4.2150    -0.3620    -0.3960 ca         1 3C5      -0.164000
     14 C11          2.9330    -0.8840    -0.3550 ca         1 3C5      -0.067000
     15 H1          -5.9600     1.5700     0.7430 h1         1 3C5       0.030033
     16 H2          -4.9230     2.5860    -0.2690 h1         1 3C5       0.030033
     17 H3          -5.6730     1.1340    -0.9380 h1         1 3C5       0.030033
     18 H4          -3.7370     1.0420     1.2520 hn         1 3C5       0.411000
     19 H6          -3.4330     0.3250    -1.5510 h1         1 3C5       0.037200
     20 H7          -2.6300     1.7020    -0.8240 h1         1 3C5       0.037200
     21 H8          -0.3800     1.2500    -0.6010 ha         1 3C5       0.112000
     22 H9           1.0300    -2.5170     0.8800 ha         1 3C5       0.114000
     23 H10         -1.2910    -3.3220     0.9980 ha         1 3C5       0.115000
     24 H11         -3.1610    -1.8480     0.3490 ha         1 3C5       0.129000
     25 H12          1.4080     1.9030     0.7660 h4         1 3C5       0.020100
     26 H13          5.3970     1.3990    -0.0460 h4         1 3C5       0.019100
     27 H14          5.0530    -0.9650    -0.7180 ha         1 3C5       0.124000
     28 H15          2.7530    -1.9080    -0.6590 ha         1 3C5       0.121000
     29 C03         -3.0240     0.6970    -0.6050 c3         1 3C5       0.202100
@<TRIPOS>BOND
     1     1     6 1   
     2     1    10 ar  
     3     1    14 ar  
     4     2     3 1   
     5     2    15 1   
     6     2    16 1   
     7     2    17 1   
     8     3    18 1   
     9     3    29 1   
    10     4     5 ar  
    11     4     9 ar  
    12     4    29 1   
    13     5     6 ar  
    14     5    21 1   
    15     6     7 ar  
    16     7     8 ar  
    17     7    22 1   
    18     8     9 ar  
    19     8    23 1   
    20     9    24 1   
    21    10    11 ar  
    22    10    25 1   
    23    11    12 ar  
    24    12    13 ar  
    25    12    26 1   
    26    13    14 ar  
    27    13    27 1   
    28    14    28 1   
    29    19    29 1   
    30    20    29 1   
@<TRIPOS>SUBSTRUCTURE
     1 3C5         1 TEMP              0 ****  ****    0 ROOT
