@<TRIPOS>MOLECULE
3C5
   29    30     1     0     0
SMALL
No Charge or Current Charge


@<TRIPOS>ATOM
      1 C10          1.8190    -0.0610     0.0860 cp         1 3C5      -0.082000
      2 C01         -5.0090     1.8610     0.1800 c3         1 3C5       0.144100
      3 N02         -3.8580     0.9830     0.4640 n7         1 3C5      -0.860400
      4 C04         -1.9840    -0.4150    -0.3130 ca         1 3C5      -0.089300
      5 C09         -0.6850     0.1300    -0.2980 ca         1 3C5      -0.096000
      6 C08          0.4410    -0.6490     0.0730 cp         1 3C5      -0.038000
      7 C07          0.2180    -2.0030     0.4320 ca         1 3C5      -0.096000
      8 C06         -1.0740    -2.5520     0.4210 ca         1 3C5      -0.116000
      9 C05         -2.1730    -1.7610     0.0500 ca         1 3C5      -0.080000
     10 C15          2.0420     1.3060     0.4060 ca         1 3C5       0.343900
     11 N14          3.2640     1.8920     0.4360 nb         1 3C5      -0.666000
     12 C13          4.3370     1.1240     0.1410 ca         1 3C5       0.334900
     13 C12          4.2310    -0.2360    -0.1890 ca         1 3C5      -0.164000
     14 C11          2.9630    -0.8400    -0.2180 ca         1 3C5      -0.067000
     15 H1          -5.4640     2.2170     1.1140 h1         1 3C5       0.030033
     16 H2          -4.6980     2.7380    -0.4040 h1         1 3C5       0.030033
     17 H3          -5.7790     1.3240    -0.3900 h1         1 3C5       0.030033
     18 H4          -3.1670     1.5220     1.0020 hn         1 3C5       0.411000
     19 H6          -3.8670    -0.1710    -1.3190 h1         1 3C5       0.037200
     20 H7          -2.8250     1.2570    -1.3710 h1         1 3C5       0.037200
     21 H8          -0.5480     1.1680    -0.5910 ha         1 3C5       0.112000
     22 H9           1.0510    -2.6310     0.7370 ha         1 3C5       0.114000
     23 H10         -1.2250    -3.5920     0.7040 ha         1 3C5       0.115000
     24 H11         -3.1720    -2.1920     0.0460 ha         1 3C5       0.129000
     25 H12          1.2060     1.9560     0.6620 h4         1 3C5       0.020100
     26 H13          5.3090     1.6150     0.1690 h4         1 3C5       0.019100
     27 H14          5.1240    -0.8100    -0.4220 ha         1 3C5       0.124000
     28 H15          2.8700    -1.8900    -0.4860 ha         1 3C5       0.121000
     29 C03         -3.1750     0.4410    -0.7240 c3         1 3C5       0.202100
@<TRIPOS>BOND
     1     1     6 1   
     2     1    10 ar  
     3     1    14 ar  
     4     2     3 1   
     5     2    15 1   
     6     2    16 1   
     7     2    17 1   
     8     3    18 1   
     9     3    29 1   
    10     4     5 ar  
    11     4     9 ar  
    12     4    29 1   
    13     5     6 ar  
    14     5    21 1   
    15     6     7 ar  
    16     7     8 ar  
    17     7    22 1   
    18     8     9 ar  
    19     8    23 1   
    20     9    24 1   
    21    10    11 ar  
    22    10    25 1   
    23    11    12 ar  
    24    12    13 ar  
    25    12    26 1   
    26    13    14 ar  
    27    13    27 1   
    28    14    28 1   
    29    19    29 1   
    30    20    29 1   
@<TRIPOS>SUBSTRUCTURE
     1 3C5         1 TEMP              0 ****  ****    0 ROOT
