@<TRIPOS>MOLECULE
3C6
   46    47     1     0     0
SMALL
bcc


@<TRIPOS>ATOM
      1 CAA         -5.6300     0.2130     0.7080 ca         1 3C6      -0.079000
      2 CAB         -6.9210    -0.2410     0.5000 ca         1 3C6      -0.247300
      3 CAC         -7.1340    -1.2240    -0.4540 ca         1 3C6       0.404200
      4 NAD         -6.1550    -1.7450    -1.1860 nb         1 3C6      -0.665000
      5 CAE         -4.9220    -1.3030    -0.9810 ca         1 3C6       0.413200
      6 CAF         -4.5880    -0.3260    -0.0430 cp         1 3C6      -0.157300
      7 CAG         -3.1930     0.1100     0.1350 cp         1 3C6      -0.010000
      8 CAH         -2.8900     1.4460     0.4040 ca         1 3C6      -0.128000
      9 CAI         -1.5810     1.8570     0.5750 ca         1 3C6      -0.087500
     10 CAL         -2.1420    -0.8030     0.0440 ca         1 3C6      -0.128000
     11 CAK         -0.8290    -0.3900     0.2020 ca         1 3C6      -0.087500
     12 CAJ         -0.5330     0.9460     0.4620 ca         1 3C6      -0.142600
     13 CAM          0.8620     1.4340     0.6610 c          1 3C6       0.681700
     14 OAX          1.1040     2.4240     1.3380 o          1 3C6      -0.601100
     15 N            1.8330     0.7160     0.0680 ns         1 3C6      -0.549900
     16 CA           3.2150     1.1100     0.1620 c3         1 3C6       0.031700
     17 C            3.4420     2.4480    -0.5470 c          1 3C6       0.660100
     18 O            2.8230     2.7490    -1.5550 o          1 3C6      -0.599100
     19 NAW          4.4050     3.2050    -0.0080 nt         1 3C6      -0.668000
     20 CB           4.1050     0.0380    -0.4720 c3         1 3C6      -0.086400
     21 CG           4.0590    -1.2940     0.2660 c3         1 3C6      -0.075400
     22 CD           4.9630    -2.3400    -0.3740 c3         1 3C6      -0.080400
     23 CE           4.9190    -3.6740     0.3540 c3         1 3C6       0.149800
     24 NZ           5.7850    -4.6500    -0.2920 n8         1 3C6      -0.884800
     25 H1          -5.4360     0.9670     1.4600 ha         1 3C6       0.140000
     26 H2          -7.7490     0.1500     1.0760 ha         1 3C6       0.143000
     27 H3          -8.1320    -1.6070    -0.6340 h4         1 3C6       0.020100
     28 H4          -4.1500    -1.7360    -1.6090 h4         1 3C6       0.021100
     29 H5          -3.6840     2.1800     0.4630 ha         1 3C6       0.137500
     30 H6          -1.3710     2.8980     0.7800 ha         1 3C6       0.144000
     31 H7          -2.3450    -1.8530    -0.1230 ha         1 3C6       0.137500
     32 H8          -0.0440    -1.1350     0.1560 ha         1 3C6       0.144000
     33 H9           1.5840     0.0590    -0.6540 hn         1 3C6       0.324500
     34 H10          3.4850     1.2090     1.2180 h1         1 3C6       0.072700
     35 H11          4.8610     2.9540     0.8530 hn         1 3C6       0.315000
     36 H12          4.6780     4.0740    -0.4380 hn         1 3C6       0.315000
     37 H13          3.8140    -0.0980    -1.5190 hc         1 3C6       0.056200
     38 H14          5.1330     0.4090    -0.4830 hc         1 3C6       0.056200
     39 H15          4.3550    -1.1370     1.3080 hc         1 3C6       0.041700
     40 H16          3.0340    -1.6760     0.2950 hc         1 3C6       0.041700
     41 H17          4.6710    -2.4930    -1.4180 hc         1 3C6       0.048200
     42 H18          5.9940    -1.9690    -0.3900 hc         1 3C6       0.048200
     43 H19          5.1600    -3.5080     1.4150 h1         1 3C6       0.026700
     44 H20          3.8950    -4.0570     0.3310 h1         1 3C6       0.026700
     45 H21          6.7500    -4.3620    -0.1820 hn         1 3C6       0.337800
     46 H22          5.7120    -5.5370     0.1910 hn         1 3C6       0.337800
@<TRIPOS>BOND
     1     1     2 ar  
     2     1     6 ar  
     3     1    25 1   
     4     2     3 ar  
     5     2    26 1   
     6     3     4 ar  
     7     3    27 1   
     8     4     5 ar  
     9     5     6 ar  
    10     5    28 1   
    11     6     7 1   
    12     7     8 ar  
    13     7    10 ar  
    14     8     9 ar  
    15     8    29 1   
    16     9    12 ar  
    17     9    30 1   
    18    10    11 ar  
    19    10    31 1   
    20    11    12 ar  
    21    11    32 1   
    22    12    13 1   
    23    13    14 2   
    24    13    15 1   
    25    15    16 1   
    26    15    33 1   
    27    16    17 1   
    28    16    20 1   
    29    16    34 1   
    30    17    18 2   
    31    17    19 1   
    32    19    35 1   
    33    19    36 1   
    34    20    21 1   
    35    20    37 1   
    36    20    38 1   
    37    21    22 1   
    38    21    39 1   
    39    21    40 1   
    40    22    23 1   
    41    22    41 1   
    42    22    42 1   
    43    23    24 1   
    44    23    43 1   
    45    23    44 1   
    46    24    45 1   
    47    24    46 1   
@<TRIPOS>SUBSTRUCTURE
     1 3C6         1 TEMP              0 ****  ****    0 ROOT
