@<TRIPOS>MOLECULE
3C6
   46    47     1     0     0
SMALL
No Charge or Current Charge


@<TRIPOS>ATOM
      1 CAA         -5.3650    -1.1020     0.7420 ca         1 3C6      -0.061000
      2 CAB         -6.7270    -1.3430     0.4980 ca         1 3C6      -0.164000
      3 CAC         -7.3380    -0.7600    -0.6230 ca         1 3C6       0.338900
      4 NAD         -6.6710     0.0320    -1.4920 nb         1 3C6      -0.665000
      5 CAE         -5.3570     0.2610    -1.2550 ca         1 3C6       0.347900
      6 CAF         -4.6390    -0.2760    -0.1520 cp         1 3C6      -0.092000
      7 CAG         -3.1850     0.0180     0.0550 cp         1 3C6      -0.010000
      8 CAH         -2.6310     0.1060     1.3540 ca         1 3C6      -0.110000
      9 CAI         -1.2670     0.3830     1.5490 ca         1 3C6      -0.069500
     10 CAL         -2.3140     0.2200    -1.0430 ca         1 3C6      -0.110000
     11 CAK         -0.9480     0.4970    -0.8540 ca         1 3C6      -0.069500
     12 CAJ         -0.4030     0.5830     0.4490 ca         1 3C6      -0.142600
     13 CAM          1.0630     0.8790     0.6980 c          1 3C6       0.614700
     14 OAX          1.5310     0.9380     1.8280 o          1 3C6      -0.601100
     15 N            1.8510     1.0830    -0.4160 ns         1 3C6      -0.482900
     16 CA           3.3040     1.3720    -0.4010 c3         1 3C6       0.031700
     17 C            3.6470     2.4580    -1.4680 c          1 3C6       0.593100
     18 O            2.8380     2.9030    -2.2680 o          1 3C6      -0.599100
     19 NAW          4.9230     2.9060    -1.4910 nt         1 3C6      -0.601000
     20 CB           4.1530     0.0810    -0.5880 c3         1 3C6      -0.086400
     21 CG           3.9180    -1.0100     0.4840 c3         1 3C6      -0.075400
     22 CD           4.8370    -2.2390     0.3070 c3         1 3C6      -0.080400
     23 CE           4.5940    -3.3260     1.3750 c3         1 3C6       0.149800
     24 NZ           5.4830    -4.4850     1.1790 n8         1 3C6      -0.995200
     25 H1          -4.8800    -1.5610     1.6000 ha         1 3C6       0.122000
     26 H2          -7.3070    -1.9750     1.1650 ha         1 3C6       0.125000
     27 H3          -8.3930    -0.9330    -0.8330 h4         1 3C6       0.020100
     28 H4          -4.8590     0.9130    -1.9710 h4         1 3C6       0.021100
     29 H5          -3.2650    -0.0270     2.2260 ha         1 3C6       0.119500
     30 H6          -0.8840     0.4450     2.5650 ha         1 3C6       0.126000
     31 H7          -2.6940     0.1480    -2.0590 ha         1 3C6       0.119500
     32 H8          -0.3290     0.6360    -1.7370 ha         1 3C6       0.126000
     33 H9           1.3830     1.0670    -1.3130 hn         1 3C6       0.324500
     34 H10          3.5650     1.8130     0.5700 h1         1 3C6       0.072700
     35 H11          5.6000     2.5500    -0.8320 hn         1 3C6       0.315000
     36 H12          5.1870     3.6070    -2.1680 hn         1 3C6       0.315000
     37 H13          3.9450    -0.3410    -1.5800 hc         1 3C6       0.056200
     38 H14          5.2170     0.3470    -0.5800 hc         1 3C6       0.056200
     39 H15          4.0820    -0.5790     1.4800 hc         1 3C6       0.041700
     40 H16          2.8740    -1.3440     0.4460 hc         1 3C6       0.041700
     41 H17          4.6740    -2.6700    -0.6890 hc         1 3C6       0.048200
     42 H18          5.8840    -1.9150     0.3520 hc         1 3C6       0.048200
     43 H19          4.7740    -2.9090     2.3760 h1         1 3C6       0.026700
     44 H20          3.5520    -3.6690     1.3230 h1         1 3C6       0.026700
     45 H21          6.4570    -4.1850     1.3110 hn         1 3C6       0.393000
     46 H22          5.3330    -5.1550     1.9440 hn         1 3C6       0.393000
@<TRIPOS>BOND
     1     1     2 ar  
     2     1     6 ar  
     3     1    25 1   
     4     2     3 ar  
     5     2    26 1   
     6     3     4 ar  
     7     3    27 1   
     8     4     5 ar  
     9     5     6 ar  
    10     5    28 1   
    11     6     7 1   
    12     7     8 ar  
    13     7    10 ar  
    14     8     9 ar  
    15     8    29 1   
    16     9    12 ar  
    17     9    30 1   
    18    10    11 ar  
    19    10    31 1   
    20    11    12 ar  
    21    11    32 1   
    22    12    13 1   
    23    13    14 2   
    24    13    15 1   
    25    15    16 1   
    26    15    33 1   
    27    16    17 1   
    28    16    20 1   
    29    16    34 1   
    30    17    18 2   
    31    17    19 1   
    32    19    35 1   
    33    19    36 1   
    34    20    21 1   
    35    20    37 1   
    36    20    38 1   
    37    21    22 1   
    38    21    39 1   
    39    21    40 1   
    40    22    23 1   
    41    22    41 1   
    42    22    42 1   
    43    23    24 1   
    44    23    43 1   
    45    23    44 1   
    46    24    45 1   
    47    24    46 1   
@<TRIPOS>SUBSTRUCTURE
     1 3C6         1 TEMP              0 ****  ****    0 ROOT
