@<TRIPOS>MOLECULE
3C7
   23    24     1     0     0
SMALL
abcg2


@<TRIPOS>ATOM
      1 C12         47.4680   -36.1450   -23.5460 c5         1 3C7       0.087600
      2 O11         49.4810   -39.0540   -23.7950 o          1 3C7      -0.710500
      3 C09         48.8440   -38.1420   -24.3710 c          1 3C7       0.733000
      4 O10         49.1610   -37.5600   -25.4380 o          1 3C7      -0.710500
      5 C08         47.4910   -37.6690   -23.7610 c5         1 3C7       0.044500
      6 N07         47.1620   -38.2870   -22.4810 n3         1 3C7      -0.684600
      7 C03         45.7350   -38.4220   -22.1880 c5         1 3C7       0.367500
      8 C02         45.3320   -39.8820   -22.0170 c3         1 3C7       0.094600
      9 S01         45.6960   -40.8840   -23.5170 sh         1 3C7      -0.393800
     10 S13         48.2820   -35.9000   -21.9350 ss         1 3C7      -0.591000
     11 C06         47.9220   -37.6830   -21.4120 c5         1 3C7       0.388500
     12 C05         47.1270   -37.7640   -20.1210 c5         1 3C7       0.084600
     13 S04         45.4000   -37.4940   -20.6290 ss         1 3C7      -0.540000
     14 H122        48.0210   -35.6270   -24.3240 h1         1 3C7       0.066200
     15 H121        46.4460   -35.7690   -23.5050 h1         1 3C7       0.066200
     16 H08         46.7260   -37.9510   -24.4850 h1         1 3C7       0.064700
     17 H03         45.1320   -37.9650   -22.9730 h2         1 3C7       0.071700
     18 H021        44.2680   -39.9650   -21.8070 h1         1 3C7       0.064700
     19 H022        45.8880   -40.3290   -21.1950 h1         1 3C7       0.064700
     20 HS01        44.4350   -40.9720   -23.9690 hs         1 3C7       0.162800
     21 H06         48.8940   -38.1590   -21.3060 h2         1 3C7       0.126700
     22 H052        47.2390   -38.7480   -19.6620 h1         1 3C7       0.071700
     23 H051        47.4220   -37.0020   -19.4050 h1         1 3C7       0.071700
@<TRIPOS>BOND
     1     1     5 1   
     2     1    10 1   
     3     1    14 1   
     4     1    15 1   
     5     2     3 1   
     6     3     4 1   
     7     3     5 1   
     8     5     6 1   
     9     5    16 1   
    10     6     7 1   
    11     6    11 1   
    12     7     8 1   
    13     7    13 1   
    14     7    17 1   
    15     8     9 1   
    16     8    18 1   
    17     8    19 1   
    18     9    20 1   
    19    10    11 1   
    20    11    12 1   
    21    11    21 1   
    22    12    13 1   
    23    12    22 1   
    24    12    23 1   
@<TRIPOS>SUBSTRUCTURE
     1 3C7         1 TEMP              0 ****  ****    0 ROOT
