@<TRIPOS>MOLECULE
3C7
   23    24     1     0     0
SMALL
No Charge or Current Charge


@<TRIPOS>ATOM
      1 C12         47.2520   -36.7930   -23.8600 c5         1 3C7       0.087600
      2 O11         50.0950   -38.5770   -23.2600 o          1 3C7      -0.710500
      3 C09         49.1910   -38.4220   -24.0730 c          1 3C7       0.733000
      4 O10         49.4150   -38.4470   -25.2770 o          1 3C7      -0.710500
      5 C08         47.6880   -38.2750   -23.5940 c5         1 3C7       0.044500
      6 N07         47.3720   -38.5520   -22.1290 n3         1 3C7      -0.684600
      7 C03         45.8950   -38.5550   -21.8770 c5         1 3C7       0.367500
      8 C02         45.1050   -39.7790   -22.4230 c3         1 3C7       0.094600
      9 S01         44.5350   -39.7640   -24.1970 sh         1 3C7      -0.393800
     10 S13         47.3730   -35.8790   -22.2350 ss         1 3C7      -0.591000
     11 C06         47.9570   -37.4210   -21.3670 c5         1 3C7       0.388500
     12 C05         47.3580   -37.5100   -19.9280 c5         1 3C7       0.084600
     13 S04         45.8030   -38.5410   -20.0270 ss         1 3C7      -0.540000
     14 H122        47.8720   -36.3060   -24.6250 h1         1 3C7       0.066200
     15 H121        46.2120   -36.7530   -24.2100 h1         1 3C7       0.066200
     16 H08         47.1320   -38.9530   -24.2510 h1         1 3C7       0.064700
     17 H03         45.4060   -37.6400   -22.2340 h2         1 3C7       0.071700
     18 H021        44.1990   -39.8870   -21.8140 h1         1 3C7       0.064700
     19 H022        45.7100   -40.6800   -22.2620 h1         1 3C7       0.064700
     20 HS01        43.7370   -38.6750   -24.0880 hs         1 3C7       0.162800
     21 H06         49.0560   -37.4430   -21.3420 h2         1 3C7       0.126700
     22 H052        48.0650   -38.0060   -19.2520 h1         1 3C7       0.071700
     23 H051        47.1430   -36.5150   -19.5180 h1         1 3C7       0.071700
@<TRIPOS>BOND
     1     1     5 1   
     2     1    10 1   
     3     1    14 1   
     4     1    15 1   
     5     2     3 1   
     6     3     4 1   
     7     3     5 1   
     8     5     6 1   
     9     5    16 1   
    10     6     7 1   
    11     6    11 1   
    12     7     8 1   
    13     7    13 1   
    14     7    17 1   
    15     8     9 1   
    16     8    18 1   
    17     8    19 1   
    18     9    20 1   
    19    10    11 1   
    20    11    12 1   
    21    11    21 1   
    22    12    13 1   
    23    12    22 1   
    24    12    23 1   
@<TRIPOS>SUBSTRUCTURE
     1 3C7         1 TEMP              0 ****  ****    0 ROOT
