@<TRIPOS>MOLECULE
3CA
   25    26     1     0     0
SMALL
bcc


@<TRIPOS>ATOM
      1 O1          43.9850    -2.3470    53.3680 o          1 3CA      -0.815300
      2 C9          43.8790    -2.4070    54.6050 c          1 3CA       0.929200
      3 O91         44.0620    -3.4170    55.3140 o          1 3CA      -0.815300
      4 C8          43.4950    -1.1290    55.3540 ca         1 3CA      -0.165600
      5 C10         43.1880     0.0960    54.7370 ca         1 3CA       0.172100
      6 O10         43.1900     0.2100    53.3980 oh         1 3CA      -0.438100
      7 C11         42.8720     1.2070    55.5230 ca         1 3CA      -0.275000
      8 C12         42.8490     1.1250    56.9010 ca         1 3CA      -0.090000
      9 C13         43.1330    -0.0810    57.5370 cp         1 3CA      -0.138000
     10 C7          43.4510    -1.1770    56.7450 ca         1 3CA      -0.046000
     11 C3          43.1300    -0.1590    59.0120 cp         1 3CA       0.032000
     12 C2          43.9260     0.7150    59.7530 ca         1 3CA      -0.120000
     13 C4          42.3470    -1.0610    59.7340 ca         1 3CA       0.037400
     14 CL          41.2750    -2.1470    58.9150 cl         1 3CA      -0.086400
     15 C5          42.3590    -1.1060    61.1200 ca         1 3CA      -0.125000
     16 C6          43.1720    -0.2230    61.8090 ca         1 3CA       0.017400
     17 CL1         43.1960    -0.2730    63.5390 cl         1 3CA      -0.136400
     18 C1          43.9580     0.6980    61.1370 ca         1 3CA      -0.130000
     19 H10         42.9430     1.1100    53.1570 ho         1 3CA       0.387000
     20 H11         42.6320     2.1510    55.0430 ha         1 3CA       0.105000
     21 H12         42.5930     2.0030    57.4810 ha         1 3CA       0.105000
     22 H7          43.6950    -2.1220    57.2120 ha         1 3CA       0.163000
     23 H2          44.5500     1.4260    59.2250 ha         1 3CA       0.141000
     24 H5          41.7370    -1.8140    61.6510 ha         1 3CA       0.151000
     25 H1          44.5910     1.3870    61.6780 ha         1 3CA       0.138000
@<TRIPOS>BOND
     1     1     2 1   
     2     2     3 1   
     3     2     4 1   
     4     4     5 ar  
     5     4    10 ar  
     6     5     6 1   
     7     5     7 ar  
     8     6    19 1   
     9     7     8 ar  
    10     7    20 1   
    11     8     9 ar  
    12     8    21 1   
    13     9    10 ar  
    14     9    11 1   
    15    10    22 1   
    16    11    12 ar  
    17    11    13 ar  
    18    12    18 ar  
    19    12    23 1   
    20    13    14 1   
    21    13    15 ar  
    22    15    16 ar  
    23    15    24 1   
    24    16    17 1   
    25    16    18 ar  
    26    18    25 1   
@<TRIPOS>SUBSTRUCTURE
     1 3CA         1 TEMP              0 ****  ****    0 ROOT
