@<TRIPOS>MOLECULE
3CA
   25    26     1     0     0
SMALL
No Charge or Current Charge


@<TRIPOS>ATOM
      1 O1          44.8220    -2.3570    53.8520 o          1 3CA      -0.710000
      2 C9          43.8160    -2.3740    54.5480 c          1 3CA       0.718600
      3 O91         43.1350    -3.3740    54.7250 o          1 3CA      -0.710000
      4 C8          43.4720    -1.1470    55.3390 ca         1 3CA      -0.165600
      5 C10         43.1590     0.0700    54.7050 ca         1 3CA       0.172100
      6 O10         43.1260     0.1720    53.3470 oh         1 3CA      -0.477100
      7 C11         42.8530     1.2040    55.4730 ca         1 3CA      -0.257000
      8 C12         42.8500     1.1310    56.8750 ca         1 3CA      -0.072000
      9 C13         43.1400    -0.0840    57.5370 cp         1 3CA      -0.138000
     10 C7          43.4570    -1.2170    56.7470 ca         1 3CA      -0.028000
     11 C3          43.1450    -0.1500    59.0320 cp         1 3CA       0.032000
     12 C2          43.9070     0.7930    59.7650 ca         1 3CA      -0.102000
     13 C4          42.4020    -1.1220    59.7610 ca         1 3CA       0.129000
     14 Cl          41.3660    -2.3030    58.9560 cl         1 3CA      -0.178000
     15 C5          42.4410    -1.1460    61.1660 ca         1 3CA      -0.107000
     16 C6          43.2120    -0.2070    61.8670 ca         1 3CA       0.109000
     17 Cl1         43.2550    -0.2430    63.6250 cl         1 3CA      -0.228000
     18 C1          43.9430     0.7640    61.1690 ca         1 3CA      -0.112000
     19 H10         42.8920     1.0950    53.1200 ho         1 3CA       0.426000
     20 H11         42.6120     2.1470    54.9890 ha         1 3CA       0.087000
     21 H12         42.6080     2.0190    57.4560 ha         1 3CA       0.087000
     22 H7          43.7090    -2.1570    57.2340 ha         1 3CA       0.145000
     23 H2          44.4820     1.5480    59.2330 ha         1 3CA       0.123000
     24 H5          41.8670    -1.8890    61.7120 ha         1 3CA       0.133000
     25 H1          44.5380     1.4930    61.7140 ha         1 3CA       0.120000
@<TRIPOS>BOND
     1     1     2 1   
     2     2     3 1   
     3     2     4 1   
     4     4     5 ar  
     5     4    10 ar  
     6     5     6 1   
     7     5     7 ar  
     8     6    19 1   
     9     7     8 ar  
    10     7    20 1   
    11     8     9 ar  
    12     8    21 1   
    13     9    10 ar  
    14     9    11 1   
    15    10    22 1   
    16    11    12 ar  
    17    11    13 ar  
    18    12    18 ar  
    19    12    23 1   
    20    13    14 1   
    21    13    15 ar  
    22    15    16 ar  
    23    15    24 1   
    24    16    17 1   
    25    16    18 ar  
    26    18    25 1   
@<TRIPOS>SUBSTRUCTURE
     1 3CA         1 TEMP              0 ****  ****    0 ROOT
