@<TRIPOS>MOLECULE
3CB
   77    78     1     0     0
SMALL
abcg2


@<TRIPOS>ATOM
      1 C15         -1.8980    -0.2790    -0.4450 c          1 3CB       0.607100
      2 O1          -2.1640    -1.4330    -0.7350 o          1 3CB      -0.604100
      3 N17         -2.0040     0.7510    -1.2990 ns         1 3CB      -0.497900
      4 C18         -2.3730     0.6080    -2.6870 c3         1 3CB       0.022700
      5 C19         -3.7930     1.1080    -2.9810 c3         1 3CB      -0.069400
      6 C20         -4.8390     0.3380    -2.1950 c3         1 3CB      -0.120700
      7 C28         -1.3730     1.3960    -3.5300 c          1 3CB       0.592100
      8 O30         -0.8500     2.4130    -3.0980 o          1 3CB      -0.606100
      9 N31         -1.1720     0.9050    -4.7590 ns         1 3CB      -0.495900
     10 C32         -0.2900     1.4950    -5.7420 c3         1 3CB       0.145300
     11 C16          1.3200     0.1040    -7.0970 ca         1 3CB      -0.106000
     12 C17          2.4920    -0.6250    -7.2280 ca         1 3CB      -0.079000
     13 C22          3.3720    -0.7490    -6.1580 ca         1 3CB      -0.140900
     14 C23          3.0450    -0.1350    -4.9490 ca         1 3CB      -0.079000
     15 C24          1.8700     0.5870    -4.8190 ca         1 3CB      -0.106000
     16 C25          0.9930     0.7180    -5.8930 ca         1 3CB      -0.108300
     17 N1           4.6400    -2.4780    -7.1940 n2         1 3CB      -0.836100
     18 C2          -6.2630     0.7100    -2.5260 c2         1 3CB       0.612200
     19 N5          -7.1890     0.0760    -1.7480 nv         1 3CB      -1.086200
     20 N3          -6.5090     1.5790    -3.4270 n2         1 3CB      -0.839100
     21 C1          -2.6340     0.4370     1.8920 c3         1 3CB      -0.080700
     22 C4          -3.2770     1.7900     1.5750 c3         1 3CB      -0.076400
     23 N4          -0.6370    -1.0010     1.4640 n7         1 3CB      -0.922300
     24 C5          -1.4440     0.0970     0.9660 c3         1 3CB       0.169500
     25 O4           1.4030    -2.0940     2.3390 o          1 3CB      -0.526000
     26 O3           1.4750     0.3170     1.6170 o          1 3CB      -0.526000
     27 C9           0.3780    -0.2670     3.9380 c3         1 3CB      -0.241100
     28 C6          -2.3390     2.9860     1.6730 c3         1 3CB      -0.097100
     29 C8           1.6370    -0.0860     4.7270 ca         1 3CB      -0.130300
     30 C7           2.1770    -1.1550     5.4340 ca         1 3CB      -0.055000
     31 C12          3.3500    -1.0150     6.1670 ca         1 3CB      -0.136600
     32 C10          3.9860     0.2240     6.1750 ca         1 3CB      -0.070000
     33 C11          3.4610     1.2950     5.4660 ca         1 3CB      -0.148000
     34 C13          2.2900     1.1420     4.7380 ca         1 3CB      -0.111000
     35 N2           5.6360    -1.2160    -5.4710 nv         1 3CB      -1.073200
     36 C14          3.9250    -2.1960     6.9410 c          1 3CB       0.714600
     37 O2           4.9670    -1.9820     7.5890 o          1 3CB      -0.718000
     38 O5           3.3050    -3.2720     6.8550 o          1 3CB      -0.718000
     39 H17         -1.6660     1.6600    -1.0200 hn         1 3CB       0.338500
     40 H18         -2.3140    -0.4530    -2.9390 h1         1 3CB       0.085700
     41 H191        -3.8630     2.1750    -2.7560 hc         1 3CB       0.066200
     42 H192        -3.9820     1.0000    -4.0500 hc         1 3CB       0.066200
     43 H201        -4.7150    -0.7380    -2.3570 hc         1 3CB       0.061700
     44 H202        -4.6970     0.4930    -1.1220 hc         1 3CB       0.061700
     45 H31         -1.6020     0.0260    -5.0010 hn         1 3CB       0.318500
     46 H321        -0.8140     1.5420    -6.6980 h1         1 3CB       0.063700
     47 H322        -0.0810     2.5210    -5.4400 h1         1 3CB       0.063700
     48 H16          0.6500     0.1930    -7.9440 ha         1 3CB       0.121000
     49 H2           2.7310    -1.1010    -8.1700 ha         1 3CB       0.130500
     50 H23          3.6960    -0.2300    -4.0890 ha         1 3CB       0.130500
     51 H24          1.6350     1.0520    -3.8690 ha         1 3CB       0.121000
     52 HN1          5.5530    -2.9240    -7.2330 hn         1 3CB       0.368400
     53 HN51        -8.1500     0.0830    -2.0500 hn         1 3CB       0.461000
     54 HN52        -6.9190    -0.7700    -1.2750 hn         1 3CB       0.461000
     55 HN3         -7.5110     1.7220    -3.5360 hn         1 3CB       0.365400
     56 H1          -2.1990     0.5200     2.8950 hc         1 3CB       0.052700
     57 H41         -4.0970     1.9280     2.2840 hc         1 3CB       0.043200
     58 H42         -3.7470     1.7640     0.5870 hc         1 3CB       0.043200
     59 HN4         -1.1030    -1.8790     1.6590 hn         1 3CB       0.506000
     60 H5          -0.7890     0.9690     0.9060 h1         1 3CB       0.090700
     61 H91         -0.1910     0.6620     3.8590 h1         1 3CB       0.078700
     62 H92         -0.2690    -1.0360     4.3620 h1         1 3CB       0.078700
     63 H61         -2.8960     3.9190     1.5900 hc         1 3CB       0.038033
     64 H62         -1.8170     3.0000     2.6320 hc         1 3CB       0.038033
     65 H63         -1.5780     3.0030     0.8900 hc         1 3CB       0.038033
     66 H7           1.6720    -2.1130     5.4240 ha         1 3CB       0.134000
     67 H10          4.8980     0.3470     6.7450 ha         1 3CB       0.129000
     68 H11          3.9640     2.2540     5.4820 ha         1 3CB       0.089000
     69 H13          1.8790     1.9800     4.1870 ha         1 3CB       0.090000
     70 HN21         6.5390    -1.6280    -5.6480 hn         1 3CB       0.462500
     71 HN22         5.6840    -0.2750    -5.1180 hn         1 3CB       0.462500
     72 C26          4.6210    -1.5430    -6.3230 ce         1 3CB       0.663800
     73 C3          -3.6930    -0.6600     1.9410 c3         1 3CB      -0.086100
     74 H31A        -3.2770    -1.6450     2.1520 hc         1 3CB       0.037700
     75 H32         -4.4100    -0.4420     2.7330 hc         1 3CB       0.037700
     76 H33         -4.2530    -0.7300     1.0070 hc         1 3CB       0.037700
     77 S1           0.7750    -0.7850     2.2600 s6         1 3CB       1.189100
@<TRIPOS>BOND
     1     1     2 2   
     2     1     3 1   
     3     1    24 1   
     4     3     4 1   
     5     3    39 1   
     6     4     5 1   
     7     4     7 1   
     8     4    40 1   
     9     5     6 1   
    10     5    41 1   
    11     5    42 1   
    12     6    18 1   
    13     6    43 1   
    14     6    44 1   
    15     7     8 2   
    16     7     9 1   
    17     9    10 1   
    18     9    45 1   
    19    10    16 1   
    20    10    46 1   
    21    10    47 1   
    22    11    12 ar  
    23    11    16 ar  
    24    11    48 1   
    25    12    13 ar  
    26    12    49 1   
    27    13    14 ar  
    28    13    72 1   
    29    14    15 ar  
    30    14    50 1   
    31    15    16 ar  
    32    15    51 1   
    33    17    52 1   
    34    17    72 2   
    35    18    19 1   
    36    18    20 2   
    37    19    53 1   
    38    19    54 1   
    39    20    55 1   
    40    21    22 1   
    41    21    24 1   
    42    21    56 1   
    43    21    73 1   
    44    22    28 1   
    45    22    57 1   
    46    22    58 1   
    47    23    24 1   
    48    23    59 1   
    49    23    77 1   
    50    24    60 1   
    51    25    77 2   
    52    26    77 2   
    53    27    29 1   
    54    27    61 1   
    55    27    62 1   
    56    27    77 1   
    57    28    63 1   
    58    28    64 1   
    59    28    65 1   
    60    29    30 ar  
    61    29    34 ar  
    62    30    31 ar  
    63    30    66 1   
    64    31    32 ar  
    65    31    36 1   
    66    32    33 ar  
    67    32    67 1   
    68    33    34 ar  
    69    33    68 1   
    70    34    69 1   
    71    35    70 1   
    72    35    71 1   
    73    35    72 1   
    74    36    37 1   
    75    36    38 1   
    76    73    74 1   
    77    73    75 1   
    78    73    76 1   
@<TRIPOS>SUBSTRUCTURE
     1 3CB         1 TEMP              0 ****  ****    0 ROOT
