@<TRIPOS>MOLECULE
3CB
   77    78     1     0     0
SMALL
No Charge or Current Charge


@<TRIPOS>ATOM
      1 C15         -2.5630    -0.6880     0.6460 c          1 3CB       0.607100
      2 O1          -2.8890    -1.7310     0.0870 o          1 3CB      -0.604100
      3 N17         -1.9190     0.3250    -0.0450 ns         1 3CB      -0.497900
      4 C18         -1.4720     0.2510    -1.4560 c3         1 3CB       0.022700
      5 C19         -2.5140     0.8810    -2.4210 c3         1 3CB      -0.069400
      6 C20         -3.8680     0.1300    -2.4910 c3         1 3CB      -0.120700
      7 C28         -0.0870     0.9480    -1.6000 c          1 3CB       0.592100
      8 O30          0.3640     1.7180    -0.7610 o          1 3CB      -0.606100
      9 N31          0.6120     0.6370    -2.7450 ns         1 3CB      -0.495900
     10 C32          1.9270     1.1780    -3.0740 c3         1 3CB       0.145300
     11 C16          2.0950     1.3120    -5.6050 ca         1 3CB      -0.106000
     12 C17          2.5410     0.8140    -6.8410 ca         1 3CB      -0.079000
     13 C22          3.3300    -0.3580    -6.9110 ca         1 3CB      -0.140900
     14 C23          3.6250    -1.0380    -5.7040 ca         1 3CB      -0.079000
     15 C24          3.1770    -0.5380    -4.4690 ca         1 3CB      -0.106000
     16 C25          2.4160     0.6420    -4.4110 ca         1 3CB      -0.108300
     17 N1           3.2540    -0.5460    -9.3440 n2         1 3CB      -0.836100
     18 C2          -4.8130     0.7010    -3.5270 c2         1 3CB       0.612200
     19 N5          -5.5020     1.8040    -3.1580 nv         1 3CB      -1.086200
     20 N3          -4.9630     0.2250    -4.6840 n2         1 3CB      -0.839100
     21 C1          -4.3220    -0.3510     2.5680 c3         1 3CB      -0.080700
     22 C4          -5.1470     0.6760     1.7390 c3         1 3CB      -0.076400
     23 N4          -2.0800    -1.3240     3.1170 n7         1 3CB      -0.922300
     24 C5          -2.8050    -0.3980     2.1810 c3         1 3CB       0.169500
     25 O4          -0.0770    -2.3450     4.1920 o          1 3CB      -0.526000
     26 O3           0.0050    -1.6810     1.7470 o          1 3CB      -0.526000
     27 C9           0.0870     0.2720     3.6030 c3         1 3CB      -0.241100
     28 C6          -4.6490     2.1350     1.8190 c3         1 3CB      -0.097100
     29 C8           1.5930     0.4630     3.7560 ca         1 3CB      -0.130300
     30 C7           2.2120     0.2630     5.0060 ca         1 3CB      -0.055000
     31 C12          3.6080     0.4380     5.1620 ca         1 3CB      -0.136600
     32 C10          4.3710     0.8190     4.0340 ca         1 3CB      -0.070000
     33 C11          3.7540     1.0190     2.7870 ca         1 3CB      -0.148000
     34 C13          2.3690     0.8430     2.6480 ca         1 3CB      -0.111000
     35 N2           4.8500    -1.7110    -8.2730 nv         1 3CB      -1.073200
     36 C14          4.2710     0.2230     6.5120 c          1 3CB       0.714600
     37 O2           5.4830     0.3660     6.5990 o          1 3CB      -0.718000
     38 O5           3.5710    -0.0860     7.4670 o          1 3CB      -0.718000
     39 H17         -1.6360     1.1400     0.4880 hn         1 3CB       0.338500
     40 H18         -1.3210    -0.8010    -1.7300 h1         1 3CB       0.085700
     41 H191        -2.6900     1.9250    -2.1310 hc         1 3CB       0.066200
     42 H192        -2.0900     0.9090    -3.4330 hc         1 3CB       0.066200
     43 H201        -3.6760    -0.9260    -2.7180 hc         1 3CB       0.061700
     44 H202        -4.3470     0.1430    -1.5070 hc         1 3CB       0.061700
     45 H31          0.1830    -0.0110    -3.3940 hn         1 3CB       0.318500
     46 H321         1.8660     2.2740    -3.1120 h1         1 3CB       0.063700
     47 H322         2.6360     0.9050    -2.2810 h1         1 3CB       0.063700
     48 H16          1.4960     2.2190    -5.5770 ha         1 3CB       0.121000
     49 H2           2.2770     1.3500    -7.7500 ha         1 3CB       0.130500
     50 H23          4.1930    -1.9660    -5.7140 ha         1 3CB       0.130500
     51 H24          3.4180    -1.0770    -3.5540 ha         1 3CB       0.121000
     52 HN1          3.5790    -1.1970   -10.0670 hn         1 3CB       0.368400
     53 HN51        -6.4430     1.8570    -3.5320 hn         1 3CB       0.461000
     54 HN52        -5.4310     2.0350    -2.1720 hn         1 3CB       0.461000
     55 HN3         -5.6190     0.8300    -5.1920 hn         1 3CB       0.365400
     56 H1          -4.3670    -0.0100     3.6110 hc         1 3CB       0.052700
     57 H41         -6.1850     0.6580     2.0950 hc         1 3CB       0.043200
     58 H42         -5.1830     0.3650     0.6880 hc         1 3CB       0.043200
     59 HN4         -2.2610    -1.0470     4.0810 hn         1 3CB       0.506000
     60 H5          -2.4270     0.6190     2.3450 h1         1 3CB       0.090700
     61 H91         -0.2930     0.9470     2.8300 h1         1 3CB       0.078700
     62 H92         -0.4220     0.4920     4.5480 h1         1 3CB       0.078700
     63 H61         -5.3570     2.8040     1.3160 hc         1 3CB       0.038033
     64 H62         -4.5590     2.4600     2.8630 hc         1 3CB       0.038033
     65 H63         -3.6750     2.2550     1.3300 hc         1 3CB       0.038033
     66 H7           1.6030    -0.0300     5.8590 ha         1 3CB       0.134000
     67 H10          5.4460     0.9620     4.1190 ha         1 3CB       0.129000
     68 H11          4.3510     1.3130     1.9280 ha         1 3CB       0.089000
     69 H13          1.9010     1.0000     1.6790 ha         1 3CB       0.090000
     70 HN21         5.3760    -1.7080    -9.1390 hn         1 3CB       0.462500
     71 HN22         5.4140    -1.7160    -7.4310 hn         1 3CB       0.462500
     72 C26          3.7740    -0.8960    -8.2400 ce         1 3CB       0.663800
     73 C3          -5.0190    -1.7400     2.5400 c3         1 3CB      -0.086100
     74 H31A        -4.4880    -2.4700     3.1620 hc         1 3CB       0.037700
     75 H32         -6.0410    -1.6630     2.9290 hc         1 3CB       0.037700
     76 H33         -5.0800    -2.1360     1.5210 hc         1 3CB       0.037700
     77 S1          -0.4100    -1.4020     3.1230 s6         1 3CB       1.189100
@<TRIPOS>BOND
     1     1     2 2   
     2     1     3 1   
     3     1    24 1   
     4     3     4 1   
     5     3    39 1   
     6     4     5 1   
     7     4     7 1   
     8     4    40 1   
     9     5     6 1   
    10     5    41 1   
    11     5    42 1   
    12     6    18 1   
    13     6    43 1   
    14     6    44 1   
    15     7     8 2   
    16     7     9 1   
    17     9    10 1   
    18     9    45 1   
    19    10    16 1   
    20    10    46 1   
    21    10    47 1   
    22    11    12 ar  
    23    11    16 ar  
    24    11    48 1   
    25    12    13 ar  
    26    12    49 1   
    27    13    14 ar  
    28    13    72 1   
    29    14    15 ar  
    30    14    50 1   
    31    15    16 ar  
    32    15    51 1   
    33    17    52 1   
    34    17    72 2   
    35    18    19 1   
    36    18    20 2   
    37    19    53 1   
    38    19    54 1   
    39    20    55 1   
    40    21    22 1   
    41    21    24 1   
    42    21    56 1   
    43    21    73 1   
    44    22    28 1   
    45    22    57 1   
    46    22    58 1   
    47    23    24 1   
    48    23    59 1   
    49    23    77 1   
    50    24    60 1   
    51    25    77 2   
    52    26    77 2   
    53    27    29 1   
    54    27    61 1   
    55    27    62 1   
    56    27    77 1   
    57    28    63 1   
    58    28    64 1   
    59    28    65 1   
    60    29    30 ar  
    61    29    34 ar  
    62    30    31 ar  
    63    30    66 1   
    64    31    32 ar  
    65    31    36 1   
    66    32    33 ar  
    67    32    67 1   
    68    33    34 ar  
    69    33    68 1   
    70    34    69 1   
    71    35    70 1   
    72    35    71 1   
    73    35    72 1   
    74    36    37 1   
    75    36    38 1   
    76    73    74 1   
    77    73    75 1   
    78    73    76 1   
@<TRIPOS>SUBSTRUCTURE
     1 3CB         1 TEMP              0 ****  ****    0 ROOT
