@<TRIPOS>MOLECULE
3CC
   49    50     1     0     0
SMALL
No Charge or Current Charge


@<TRIPOS>ATOM
      1 C1          -4.0050     2.4600    14.7240 ca         1 3CC      -0.007000
      2 C2          -4.9920     2.3020    15.7240 ca         1 3CC      -0.329500
      3 C3          -5.7580     3.4180    16.1400 ca         1 3CC      -0.009000
      4 C4          -5.5390     4.6820    15.5590 ca         1 3CC      -0.116000
      5 C5          -3.8080     3.7300    14.1580 ca         1 3CC      -0.111300
      6 C6          -4.5570     4.8160    14.5660 ca         1 3CC      -0.027300
      7 C7          -4.1790     6.0810    13.8430 c5         1 3CC      -0.065100
      8 C8          -3.3860     5.4800    12.6160 c5         1 3CC       0.105700
      9 C9          -2.8040     4.0920    13.0950 c5         1 3CC      -0.041100
     10 S1          -5.2750     0.6960    16.4670 sy         1 3CC       1.158600
     11 O1          -4.1440    -0.1880    16.1930 o          1 3CC      -0.536000
     12 O2          -5.8740     0.8390    17.7940 o          1 3CC      -0.536000
     13 N1          -6.4680     0.1140    15.5150 n8         1 3CC      -0.990100
     14 N2          -2.2210     6.3530    12.4260 ns         1 3CC      -0.498900
     15 C10         -2.3660     7.4930    11.6590 c          1 3CC       0.601100
     16 O3          -3.4100     7.7850    11.0910 o          1 3CC      -0.609100
     17 C11         -1.1040     8.3740    11.5640 c3         1 3CC      -0.145700
     18 C12         -0.7160     8.9810    12.9420 c3         1 3CC      -0.068900
     19 C13         -1.8400     9.8110    13.6060 c3         1 3CC      -0.077900
     20 C14         -1.4110    10.4380    14.9470 c3         1 3CC      -0.091100
     21 C15          0.0960     7.6230    10.9160 c3         1 3CC      -0.068900
     22 C16         -0.1900     6.9710     9.5400 c3         1 3CC      -0.077900
     23 C17         -0.5800     7.9690     8.4310 c3         1 3CC      -0.091100
     24 H1          -3.3990     1.6190    14.3900 ha         1 3CC       0.130000
     25 H3          -6.5220     3.3110    16.9100 ha         1 3CC       0.141000
     26 H4          -6.1230     5.5420    15.8770 ha         1 3CC       0.126000
     27 H71         -3.5590     6.7210    14.4820 hc         1 3CC       0.071200
     28 H72         -5.0450     6.6700    13.5230 hc         1 3CC       0.071200
     29 H8          -4.0240     5.3640    11.7270 h1         1 3CC       0.084700
     30 H91         -2.7600     3.3640    12.2770 hc         1 3CC       0.061200
     31 H92         -1.7980     4.1710    13.5240 hc         1 3CC       0.061200
     32 HN11        -6.3980     0.7200    14.7020 hn         1 3CC       0.472500
     33 HN12        -6.0530    -0.7610    15.2050 hn         1 3CC       0.472500
     34 HN2         -1.3180     6.1950    12.8550 hn         1 3CC       0.311500
     35 H11         -1.3620     9.2150    10.9100 hc         1 3CC       0.084700
     36 H121        -0.4130     8.1780    13.6260 hc         1 3CC       0.039950
     37 H122         0.1630     9.6250    12.8090 hc         1 3CC       0.039950
     38 H131        -2.1540    10.6110    12.9230 hc         1 3CC       0.043450
     39 H132        -2.7180     9.1780    13.7820 hc         1 3CC       0.043450
     40 H141        -0.5580    11.1110    14.8060 hc         1 3CC       0.035200
     41 H142        -2.2360    11.0160    15.3800 hc         1 3CC       0.035200
     42 H143        -1.1250     9.6590    15.6640 hc         1 3CC       0.035200
     43 H151         0.4450     6.8410    11.6020 hc         1 3CC       0.039950
     44 H152         0.9340     8.3230    10.8030 hc         1 3CC       0.039950
     45 H161        -0.9790     6.2150     9.6410 hc         1 3CC       0.043450
     46 H162         0.7100     6.4330     9.2200 hc         1 3CC       0.043450
     47 H171        -1.5400     8.4510     8.6520 hc         1 3CC       0.035200
     48 H172         0.1840     8.7480     8.3220 hc         1 3CC       0.035200
     49 H173        -0.6780     7.4500     7.4700 hc         1 3CC       0.035200
@<TRIPOS>BOND
     1     1     2 ar  
     2     1     5 ar  
     3     1    24 1   
     4     2     3 ar  
     5     2    10 1   
     6     3     4 ar  
     7     3    25 1   
     8     4     6 ar  
     9     4    26 1   
    10     5     6 ar  
    11     5     9 1   
    12     6     7 1   
    13     7     8 1   
    14     7    27 1   
    15     7    28 1   
    16     8     9 1   
    17     8    14 1   
    18     8    29 1   
    19     9    30 1   
    20     9    31 1   
    21    10    11 2   
    22    10    12 2   
    23    10    13 1   
    24    13    32 1   
    25    13    33 1   
    26    14    15 1   
    27    14    34 1   
    28    15    16 2   
    29    15    17 1   
    30    17    18 1   
    31    17    21 1   
    32    17    35 1   
    33    18    19 1   
    34    18    36 1   
    35    18    37 1   
    36    19    20 1   
    37    19    38 1   
    38    19    39 1   
    39    20    40 1   
    40    20    41 1   
    41    20    42 1   
    42    21    22 1   
    43    21    43 1   
    44    21    44 1   
    45    22    23 1   
    46    22    45 1   
    47    22    46 1   
    48    23    47 1   
    49    23    48 1   
    50    23    49 1   
@<TRIPOS>SUBSTRUCTURE
     1 3CC         1 TEMP              0 ****  ****    0 ROOT
