@<TRIPOS>MOLECULE
3CC
   49    50     1     0     0
SMALL
abcg2


@<TRIPOS>ATOM
      1 C1          -4.0100     2.4430    14.8800 ca         1 3CC      -0.007000
      2 C2          -5.1140     2.2820    15.7200 ca         1 3CC      -0.329500
      3 C3          -5.9330     3.3530    16.0670 ca         1 3CC      -0.009000
      4 C4          -5.6500     4.6220    15.5710 ca         1 3CC      -0.116000
      5 C5          -3.7430     3.7090    14.3870 ca         1 3CC      -0.111300
      6 C6          -4.5580     4.7950    14.7340 ca         1 3CC      -0.027300
      7 C7          -4.0530     6.0520    14.0840 c5         1 3CC      -0.065100
      8 C8          -3.1540     5.5080    12.9460 c5         1 3CC       0.105700
      9 C9          -2.6310     4.1580    13.4750 c5         1 3CC      -0.041100
     10 S1          -5.5170     0.6630    16.3200 sy         1 3CC       1.158600
     11 O1          -4.2870    -0.0490    16.5750 o          1 3CC      -0.536000
     12 O2          -6.4880     0.8050    17.3790 o          1 3CC      -0.536000
     13 N1          -6.2690    -0.1560    15.1090 n8         1 3CC      -0.990100
     14 N2          -2.0910     6.4030    12.5380 ns         1 3CC      -0.498900
     15 C10         -2.2830     7.4400    11.6970 c          1 3CC       0.601100
     16 O3          -3.3600     7.6270    11.1230 o          1 3CC      -0.609100
     17 C11         -1.0940     8.3700    11.4910 c3         1 3CC      -0.145700
     18 C12         -0.6560     9.0340    12.8060 c3         1 3CC      -0.068900
     19 C13         -1.7700     9.7990    13.5160 c3         1 3CC      -0.077900
     20 C14         -1.2950    10.4690    14.8020 c3         1 3CC      -0.091100
     21 C15          0.0830     7.6570    10.8030 c3         1 3CC      -0.068900
     22 C16         -0.2560     6.9900     9.4680 c3         1 3CC      -0.077900
     23 C17         -0.7180     7.9630     8.3840 c3         1 3CC      -0.091100
     24 H1          -3.3870     1.5970    14.6200 ha         1 3CC       0.130000
     25 H3          -6.7810     3.1920    16.7170 ha         1 3CC       0.141000
     26 H4          -6.2820     5.4600    15.8380 ha         1 3CC       0.126000
     27 H71         -3.4440     6.6270    14.7910 hc         1 3CC       0.071200
     28 H72         -4.8440     6.7070    13.7210 hc         1 3CC       0.071200
     29 H8          -3.7810     5.3280    12.0730 h1         1 3CC       0.084700
     30 H91         -2.4070     3.4490    12.6770 hc         1 3CC       0.061200
     31 H92         -1.7110     4.3100    14.0520 hc         1 3CC       0.061200
     32 HN11        -7.1450     0.2760    14.8300 hn         1 3CC       0.472500
     33 HN12        -5.6600    -0.3170    14.3120 hn         1 3CC       0.472500
     34 HN2         -1.2190     6.3470    13.0410 hn         1 3CC       0.311500
     35 H11         -1.4690     9.1520    10.8300 hc         1 3CC       0.084700
     36 H121        -0.2390     8.2810    13.4830 hc         1 3CC       0.039950
     37 H122         0.1650     9.7200    12.5750 hc         1 3CC       0.039950
     38 H131        -2.1780    10.5530    12.8350 hc         1 3CC       0.043450
     39 H132        -2.5940     9.1160    13.7470 hc         1 3CC       0.043450
     40 H141        -0.4880    11.1780    14.5990 hc         1 3CC       0.035200
     41 H142        -2.1060    11.0140    15.2900 hc         1 3CC       0.035200
     42 H143        -0.9150     9.7280    15.5110 hc         1 3CC       0.035200
     43 H151         0.4970     6.9100    11.4860 hc         1 3CC       0.039950
     44 H152         0.8710     8.4000    10.6450 hc         1 3CC       0.039950
     45 H161        -1.0230     6.2250     9.6250 hc         1 3CC       0.043450
     46 H162         0.6340     6.4590     9.1180 hc         1 3CC       0.043450
     47 H171        -1.6610     8.4430     8.6480 hc         1 3CC       0.035200
     48 H172         0.0240     8.7510     8.2260 hc         1 3CC       0.035200
     49 H173        -0.8650     7.4460     7.4340 hc         1 3CC       0.035200
@<TRIPOS>BOND
     1     1     2 ar  
     2     1     5 ar  
     3     1    24 1   
     4     2     3 ar  
     5     2    10 1   
     6     3     4 ar  
     7     3    25 1   
     8     4     6 ar  
     9     4    26 1   
    10     5     6 ar  
    11     5     9 1   
    12     6     7 1   
    13     7     8 1   
    14     7    27 1   
    15     7    28 1   
    16     8     9 1   
    17     8    14 1   
    18     8    29 1   
    19     9    30 1   
    20     9    31 1   
    21    10    11 2   
    22    10    12 2   
    23    10    13 1   
    24    13    32 1   
    25    13    33 1   
    26    14    15 1   
    27    14    34 1   
    28    15    16 2   
    29    15    17 1   
    30    17    18 1   
    31    17    21 1   
    32    17    35 1   
    33    18    19 1   
    34    18    36 1   
    35    18    37 1   
    36    19    20 1   
    37    19    38 1   
    38    19    39 1   
    39    20    40 1   
    40    20    41 1   
    41    20    42 1   
    42    21    22 1   
    43    21    43 1   
    44    21    44 1   
    45    22    23 1   
    46    22    45 1   
    47    22    46 1   
    48    23    47 1   
    49    23    48 1   
    50    23    49 1   
@<TRIPOS>SUBSTRUCTURE
     1 3CC         1 TEMP              0 ****  ****    0 ROOT
