@<TRIPOS>MOLECULE
3CD
   71    75     1     0     0
SMALL
abcg2


@<TRIPOS>ATOM
      1 O1A          2.2860    -3.7560    -0.0180 o          1 3CD      -0.838500
      2 PA           1.4590    -2.8730    -0.8960 p5         1 3CD       1.451800
      3 O2A          1.0310    -3.3250    -2.2550 o          1 3CD      -0.838500
      4 O3           0.1690    -2.2820    -0.0640 os         1 3CD      -0.684800
      5 PN          -1.3020    -2.9980    -0.0690 p5         1 3CD       1.474800
      6 O1N         -1.1650    -4.4860    -0.0230 o          1 3CD      -0.852000
      7 O2N         -2.1880    -2.3580    -1.1000 o          1 3CD      -0.852000
      8 O5D         -1.7080    -2.4300     1.4220 os         1 3CD      -0.551400
      9 C5D         -3.0670    -2.4110     1.7920 c3         1 3CD       0.233600
     10 C4D         -3.4570    -1.0330     2.2720 c5         1 3CD       0.136300
     11 C3D         -4.9390    -0.9230     2.6230 c5         1 3CD       0.088300
     12 O3D         -5.1390    -1.2310     3.9710 oh         1 3CD      -0.689000
     13 C2D         -5.2490     0.5400     2.2810 c5         1 3CD       0.086300
     14 O2D         -4.8060     1.4020     3.2860 oh         1 3CD      -0.698000
     15 O4D         -3.2420    -0.0570     1.2410 os         1 3CD      -0.366000
     16 C1D         -4.3300     0.7590     1.0780 c5         1 3CD       0.278300
     17 N1N         -5.0480     0.4170    -0.2100 na         1 3CD       0.008300
     18 C6N         -4.5920    -0.5430    -1.0260 ca         1 3CD       0.010000
     19 C5N         -5.2650    -0.8200    -2.1960 ca         1 3CD      -0.119000
     20 C4N         -6.3970    -0.0980    -2.5280 ca         1 3CD      -0.007000
     21 C2N         -6.1210     1.1500    -0.5200 ca         1 3CD      -0.000300
     22 C3N         -6.8320     0.9150    -1.6780 ca         1 3CD      -0.223600
     23 C7N         -8.0280     1.7760    -1.9420 c          1 3CD       0.584700
     24 O7N         -8.3280     2.6560    -1.1810 o          1 3CD      -0.473100
     25 C8N         -8.8090     1.4640    -3.1940 c3         1 3CD       0.004600
     26 O5B          2.1850    -1.3960    -1.0100 os         1 3CD      -0.570400
     27 C5B          3.5260    -1.3790    -1.4450 c3         1 3CD       0.225600
     28 C4B          3.9180     0.0350    -1.7900 c5         1 3CD       0.157300
     29 C3B          5.3590     0.1550    -2.2800 c5         1 3CD       0.084300
     30 O3B          5.4210    -0.0720    -3.6600 oh         1 3CD      -0.701000
     31 C2B          5.7090     1.5910    -1.8730 c5         1 3CD       0.093300
     32 O2B          5.1480     2.5170    -2.7610 oh         1 3CD      -0.709000
     33 C1B          4.9590     1.7090    -0.5480 c5         1 3CD       0.316300
     34 O4B          3.8490     0.8710    -0.6330 os         1 3CD      -0.412000
     35 N9A          5.7940     1.2920     0.5750 na         1 3CD      -0.303300
     36 C4A          6.8300     2.0170     1.0860 ca         1 3CD       0.103500
     37 C5A          7.3210     1.2610     2.1390 ca         1 3CD      -0.090600
     38 N7A          6.6040     0.1030     2.2800 nc         1 3CD      -0.574100
     39 C8A          5.7070     0.1600     1.3380 cd         1 3CD       0.443700
     40 N3A          7.2840     3.2000     0.6750 nb         1 3CD      -0.213000
     41 C2A          8.3060     3.6070     1.4060 ca         1 3CD       0.161900
     42 N1A          8.8850     2.9930     2.4360 nb         1 3CD      -0.318000
     43 C6A          8.4160     1.8060     2.8360 ca         1 3CD       0.441900
     44 N6A          8.9880     1.1930     3.8730 nv         1 3CD      -1.073900
     45 CL1        -10.1890     2.5520    -3.3890 cl         1 3CD      -0.210000
     46 H89         -8.1670     1.5560    -4.0710 h1         1 3CD       0.091700
     47 H5D1        -3.7270    -2.7130     0.9710 h1         1 3CD       0.022700
     48 H5D2        -3.2420    -3.1140     2.6130 h1         1 3CD       0.022700
     49 H4D         -2.8450    -0.7510     3.1350 h1         1 3CD       0.114700
     50 H3D         -5.5320    -1.5760     1.9680 h1         1 3CD       0.051700
     51 HA          -6.0650    -1.4580     4.1070 ho         1 3CD       0.511000
     52 H2D         -6.3110     0.6940     2.0520 h1         1 3CD       0.048700
     53 HB          -4.9430     0.9610     4.1340 ho         1 3CD       0.540000
     54 H1D         -4.0270     1.8020     0.9600 h2         1 3CD       0.128700
     55 H6N         -3.6800    -1.0760    -0.7680 h4         1 3CD       0.299000
     56 HC          -6.3980     1.9360     0.1700 h4         1 3CD       0.181000
     57 H5N         -4.8860    -1.5970    -2.8420 ha         1 3CD       0.201000
     58 H4N         -6.9150    -0.3280    -3.4490 ha         1 3CD       0.142000
     59 H8N         -9.1770     0.4370    -3.1570 h1         1 3CD       0.091700
     60 H5B1         4.1970    -1.7780    -0.6740 h1         1 3CD       0.024700
     61 H5B2         3.6710    -1.9900    -2.3450 h1         1 3CD       0.024700
     62 H4B          3.2360     0.4260    -2.5550 h1         1 3CD       0.088700
     63 H3B          6.0030    -0.5440    -1.7300 h1         1 3CD       0.056700
     64 HD           6.3280    -0.2870    -3.8990 ho         1 3CD       0.502000
     65 H2B          6.7870     1.7440    -1.7510 h1         1 3CD       0.062700
     66 HE           5.2480     2.1670    -3.6550 ho         1 3CD       0.519000
     67 H1B          4.6480     2.7390    -0.3520 h2         1 3CD       0.108700
     68 H8A          4.9520    -0.5900     1.1660 h5         1 3CD       0.107800
     69 H2A          8.7350     4.5670     1.1360 h5         1 3CD       0.034100
     70 H66          8.6920     0.2770     4.1610 hn         1 3CD       0.501500
     71 H67          9.7980     1.5930     4.3140 hn         1 3CD       0.501500
@<TRIPOS>BOND
     1     1     2 1   
     2     2     3 1   
     3     2     4 1   
     4     2    26 1   
     5     4     5 1   
     6     5     6 1   
     7     5     7 1   
     8     5     8 1   
     9     8     9 1   
    10     9    10 1   
    11     9    47 1   
    12     9    48 1   
    13    10    11 1   
    14    10    15 1   
    15    10    49 1   
    16    11    12 1   
    17    11    13 1   
    18    11    50 1   
    19    12    51 1   
    20    13    14 1   
    21    13    16 1   
    22    13    52 1   
    23    14    53 1   
    24    15    16 1   
    25    16    17 1   
    26    16    54 1   
    27    17    18 1   
    28    17    21 2   
    29    18    19 ar  
    30    18    55 1   
    31    19    20 ar  
    32    19    57 1   
    33    20    22 ar  
    34    20    58 1   
    35    21    22 ar  
    36    21    56 1   
    37    22    23 1   
    38    23    24 2   
    39    23    25 1   
    40    25    45 1   
    41    25    46 1   
    42    25    59 1   
    43    26    27 1   
    44    27    28 1   
    45    27    60 1   
    46    27    61 1   
    47    28    29 1   
    48    28    34 1   
    49    28    62 1   
    50    29    30 1   
    51    29    31 1   
    52    29    63 1   
    53    30    64 1   
    54    31    32 1   
    55    31    33 1   
    56    31    65 1   
    57    32    66 1   
    58    33    34 1   
    59    33    35 1   
    60    33    67 1   
    61    35    36 1   
    62    35    39 1   
    63    36    37 ar  
    64    36    40 ar  
    65    37    38 1   
    66    37    43 ar  
    67    38    39 2   
    68    39    68 1   
    69    40    41 ar  
    70    41    42 ar  
    71    41    69 1   
    72    42    43 ar  
    73    43    44 1   
    74    44    70 1   
    75    44    71 1   
@<TRIPOS>SUBSTRUCTURE
     1 3CD         1 TEMP              0 ****  ****    0 ROOT
