@<TRIPOS>MOLECULE
3CD
   71    75     1     0     0
SMALL
No Charge or Current Charge


@<TRIPOS>ATOM
      1 O1A          0.6580    -4.4260    -2.4880 o          1 3CD      -0.838500
      2 PA          -0.0090    -3.2430    -1.8680 p5         1 3CD       1.451800
      3 O2A         -1.4940    -3.3800    -1.8200 o          1 3CD      -0.838500
      4 O3           0.6210    -2.7690    -0.5040 os         1 3CD      -0.684800
      5 PN           0.6110    -3.8980     0.5930 p5         1 3CD       1.474800
      6 O1N          1.7190    -4.8800     0.3960 o          1 3CD      -0.852000
      7 O2N         -0.7000    -4.5710     0.8280 o          1 3CD      -0.852000
      8 O5D          0.9820    -2.9660     1.8600 os         1 3CD      -0.551400
      9 C5D          0.0120    -2.1370     2.5240 c3         1 3CD       0.233600
     10 C4D         -0.3170    -0.8780     1.6770 c5         1 3CD       0.136300
     11 C3D         -0.9180     0.3240     2.4580 c5         1 3CD       0.088300
     12 O3D          0.0430     1.0730     3.2260 oh         1 3CD      -0.689000
     13 C2D         -1.4710     1.1910     1.2810 c5         1 3CD       0.086300
     14 O2D         -0.4740     2.1590     0.9550 oh         1 3CD      -0.698000
     15 O4D         -1.3850    -1.1350     0.7530 os         1 3CD      -0.366000
     16 C1D         -1.7000     0.1290     0.1350 c5         1 3CD       0.278300
     17 N1N         -3.0360     0.1000    -0.4900 na         1 3CD       0.008300
     18 C6N         -3.7220    -1.0970    -0.7560 ca         1 3CD       0.010000
     19 C5N         -5.0170    -1.1120    -1.3060 ca         1 3CD      -0.119000
     20 C4N         -5.6560     0.0900    -1.6410 ca         1 3CD      -0.007000
     21 C2N         -3.6780     1.2850    -0.8890 ca         1 3CD      -0.000300
     22 C3N         -4.9800     1.3120    -1.4420 ca         1 3CD      -0.223600
     23 C7N         -5.6050     2.6420    -1.8120 c          1 3CD       0.584700
     24 O7N         -4.9830     3.6830    -1.6300 o          1 3CD      -0.473100
     25 C8N         -7.0220     2.6610    -2.4150 c3         1 3CD       0.004600
     26 O5B          0.3420    -1.9210    -2.7180 os         1 3CD      -0.570400
     27 C5B          1.7080    -1.6210    -3.0420 c3         1 3CD       0.225600
     28 C4B          2.0330    -0.1680    -2.6010 c5         1 3CD       0.157300
     29 C3B          3.5470     0.1890    -2.5800 c5         1 3CD       0.084300
     30 O3B          4.1150     0.3760    -3.8890 oh         1 3CD      -0.701000
     31 C2B          3.4800     1.5290    -1.7930 c5         1 3CD       0.093300
     32 O2B          3.0790     2.5820    -2.6830 oh         1 3CD      -0.709000
     33 C1B          2.3990     1.1760    -0.7040 c5         1 3CD       0.316300
     34 O4B          1.6070     0.0920    -1.2440 os         1 3CD      -0.412000
     35 N9A          2.9320     0.7520     0.5860 na         1 3CD      -0.303300
     36 C4A          3.1530     1.5140     1.7020 ca         1 3CD       0.103500
     37 C5A          3.6840     0.6880     2.6590 ca         1 3CD      -0.090600
     38 N7A          3.8270    -0.6210     2.2120 nc         1 3CD      -0.574100
     39 C8A          3.3450    -0.5420     0.9560 cd         1 3CD       0.443700
     40 N3A          2.9350     2.8250     1.9300 nb         1 3CD      -0.213000
     41 C2A          3.2730     3.2770     3.1610 ca         1 3CD       0.161900
     42 N1A          3.8040     2.5490     4.1720 nb         1 3CD      -0.318000
     43 C6A          4.0050     1.2480     3.9150 ca         1 3CD       0.441900
     44 N6A          4.5420     0.5180     4.9290 nv         1 3CD      -1.073900
     45 Cl1         -7.6650     4.3270    -2.8090 cl         1 3CD      -0.210000
     46 H89         -7.0140     2.0760    -3.3430 h1         1 3CD       0.091700
     47 H5D1        -0.9120    -2.6910     2.7370 h1         1 3CD       0.022700
     48 H5D2         0.4240    -1.8080     3.4870 h1         1 3CD       0.022700
     49 H4D          0.5820    -0.5790     1.1250 h1         1 3CD       0.114700
     50 H3D         -1.7460    -0.0150     3.0970 h1         1 3CD       0.051700
     51 HA           0.0820     0.6780     4.1310 ho         1 3CD       0.511000
     52 H2D         -2.4060     1.6850     1.5760 h1         1 3CD       0.048700
     53 HB           0.0930     2.1350     1.7750 ho         1 3CD       0.540000
     54 H1D         -0.9930     0.3150    -0.6840 h2         1 3CD       0.128700
     55 H6N         -3.2160    -2.0370    -0.5220 h4         1 3CD       0.299000
     56 HC          -3.1170     2.2110    -0.7420 h4         1 3CD       0.181000
     57 H5N         -5.5210    -2.0620    -1.4810 ha         1 3CD       0.201000
     58 H4N         -6.6580     0.0480    -2.0650 ha         1 3CD       0.142000
     59 H8N         -7.7110     2.1960    -1.7010 h1         1 3CD       0.091700
     60 H5B1         2.4000    -2.3060    -2.5340 h1         1 3CD       0.024700
     61 H5B2         1.8750    -1.7150    -4.1230 h1         1 3CD       0.024700
     62 H4B          1.4830     0.5120    -3.2660 h1         1 3CD       0.088700
     63 H3B          4.1090    -0.5700    -2.0160 h1         1 3CD       0.056700
     64 HD           5.0660     0.1130    -3.8430 ho         1 3CD       0.502000
     65 H2B          4.4470     1.7690    -1.3280 h1         1 3CD       0.062700
     66 HE           3.3760     2.2610    -3.5720 ho         1 3CD       0.519000
     67 H1B          1.7640     2.0490    -0.5070 h2         1 3CD       0.108700
     68 H8A          3.2690    -1.3720     0.2610 h5         1 3CD       0.107800
     69 H2A          3.1030     4.3340     3.3560 h5         1 3CD       0.034100
     70 H66          4.9000    -0.4020     4.6830 hn         1 3CD       0.501500
     71 H67          5.0260     1.0130     5.6730 hn         1 3CD       0.501500
@<TRIPOS>BOND
     1     1     2 1   
     2     2     3 1   
     3     2     4 1   
     4     2    26 1   
     5     4     5 1   
     6     5     6 1   
     7     5     7 1   
     8     5     8 1   
     9     8     9 1   
    10     9    10 1   
    11     9    47 1   
    12     9    48 1   
    13    10    11 1   
    14    10    15 1   
    15    10    49 1   
    16    11    12 1   
    17    11    13 1   
    18    11    50 1   
    19    12    51 1   
    20    13    14 1   
    21    13    16 1   
    22    13    52 1   
    23    14    53 1   
    24    15    16 1   
    25    16    17 1   
    26    16    54 1   
    27    17    18 1   
    28    17    21 2   
    29    18    19 ar  
    30    18    55 1   
    31    19    20 ar  
    32    19    57 1   
    33    20    22 ar  
    34    20    58 1   
    35    21    22 ar  
    36    21    56 1   
    37    22    23 1   
    38    23    24 2   
    39    23    25 1   
    40    25    45 1   
    41    25    46 1   
    42    25    59 1   
    43    26    27 1   
    44    27    28 1   
    45    27    60 1   
    46    27    61 1   
    47    28    29 1   
    48    28    34 1   
    49    28    62 1   
    50    29    30 1   
    51    29    31 1   
    52    29    63 1   
    53    30    64 1   
    54    31    32 1   
    55    31    33 1   
    56    31    65 1   
    57    32    66 1   
    58    33    34 1   
    59    33    35 1   
    60    33    67 1   
    61    35    36 1   
    62    35    39 1   
    63    36    37 ar  
    64    36    40 ar  
    65    37    38 1   
    66    37    43 ar  
    67    38    39 2   
    68    39    68 1   
    69    40    41 ar  
    70    41    42 ar  
    71    41    69 1   
    72    42    43 ar  
    73    43    44 1   
    74    44    70 1   
    75    44    71 1   
@<TRIPOS>SUBSTRUCTURE
     1 3CD         1 TEMP              0 ****  ****    0 ROOT
