@<TRIPOS>MOLECULE
3CE
   14    14     1     0     0
SMALL
No Charge or Current Charge


@<TRIPOS>ATOM
      1 C1           1.4310    -0.3430    -0.0410 ca         1 3CE       0.050100
      2 O1           2.3500    -1.3590    -0.0610 oh         1 3CE      -0.556100
      3 Cl1         -2.6200     0.0740     0.1880 cl         1 3CE      -0.179000
      4 C2           0.0550    -0.6410     0.0520 ca         1 3CE       0.127100
      5 O2          -0.3320    -1.9530     0.1200 oh         1 3CE      -0.515100
      6 C3          -0.8910     0.4090     0.0730 ca         1 3CE       0.102000
      7 C4          -0.4560     1.7440     0.0010 ca         1 3CE      -0.098000
      8 C5           0.9160     2.0370    -0.0910 ca         1 3CE      -0.104000
      9 C6           1.8600     0.9940    -0.1120 ca         1 3CE      -0.159000
     10 HO1          3.2520    -0.9720    -0.1290 ho         1 3CE       0.477000
     11 HO2          0.4980    -2.4800     0.0880 ho         1 3CE       0.485000
     12 H4          -1.1840     2.5520     0.0170 ha         1 3CE       0.133000
     13 H5           1.2480     3.0720    -0.1460 ha         1 3CE       0.121000
     14 H6           2.9190     1.2320    -0.1840 ha         1 3CE       0.116000
@<TRIPOS>BOND
     1     1     2 1   
     2     1     4 ar  
     3     1     9 ar  
     4     2    10 1   
     5     3     6 1   
     6     4     5 1   
     7     4     6 ar  
     8     5    11 1   
     9     6     7 ar  
    10     7     8 ar  
    11     7    12 1   
    12     8     9 ar  
    13     8    13 1   
    14     9    14 1   
@<TRIPOS>SUBSTRUCTURE
     1 3CE         1 TEMP              0 ****  ****    0 ROOT
