@<TRIPOS>MOLECULE
3CE
   14    14     1     0     0
SMALL
bcc


@<TRIPOS>ATOM
      1 C1           1.4520    -0.2980    -0.0480 ca         1 3CE       0.050100
      2 O1           2.3000    -1.3490    -0.0660 oh         1 3CE      -0.517100
      3 CL1         -2.5100     0.0050     0.1860 cl         1 3CE      -0.087400
      4 C2           0.0910    -0.6250     0.0460 ca         1 3CE       0.127100
      5 O2          -0.3360    -1.8960     0.1130 oh         1 3CE      -0.476100
      6 C3          -0.8320     0.4100     0.0690 ca         1 3CE       0.010400
      7 C4          -0.4430     1.7420     0.0020 ca         1 3CE      -0.116000
      8 C5           0.9040     2.0430    -0.0900 ca         1 3CE      -0.122000
      9 C6           1.8510     1.0260    -0.1150 ca         1 3CE      -0.177000
     10 HO1          3.2160    -1.0520    -0.1100 ho         1 3CE       0.438000
     11 HO2          0.4140    -2.5040     0.0990 ho         1 3CE       0.446000
     12 H4          -1.1900     2.5230     0.0210 ha         1 3CE       0.151000
     13 H5           1.2220     3.0750    -0.1450 ha         1 3CE       0.139000
     14 H6           2.9060     1.2650    -0.1880 ha         1 3CE       0.134000
@<TRIPOS>BOND
     1     1     2 1   
     2     1     4 ar  
     3     1     9 ar  
     4     2    10 1   
     5     3     6 1   
     6     4     5 1   
     7     4     6 ar  
     8     5    11 1   
     9     6     7 ar  
    10     7     8 ar  
    11     7    12 1   
    12     8     9 ar  
    13     8    13 1   
    14     9    14 1   
@<TRIPOS>SUBSTRUCTURE
     1 3CE         1 TEMP              0 ****  ****    0 ROOT
