@<TRIPOS>MOLECULE
3CF
   23    23     1     0     0
SMALL
bcc


@<TRIPOS>ATOM
      1 C           65.0380    10.9620    29.6550 c          1 3CF       0.925600
      2 N           64.8690     8.5540    30.2460 n8         1 3CF      -0.858800
      3 OXT         64.2550    11.7990    29.1630 o          1 3CF      -0.824800
      4 C1          65.9650    14.8710    33.1090 cg         1 3CF       0.264800
      5 N1          66.7680    15.6920    33.2060 n1         1 3CF      -0.418800
      6 CA          64.4070     9.8950    30.5830 c3         1 3CF       0.019500
      7 CB          64.8070    10.1830    32.0370 c3         1 3CF      -0.019100
      8 CG          64.4090    11.5590    32.4820 ca         1 3CF      -0.036300
      9 CZ          63.6370    14.1530    33.2480 ca         1 3CF      -0.108000
     10 CD1         65.3570    12.5660    32.6060 ca         1 3CF      -0.058000
     11 CD2         63.0760    11.8690    32.7490 ca         1 3CF      -0.098000
     12 CE1         64.9720    13.8520    32.9880 ca         1 3CF      -0.035000
     13 CE2         62.6910    13.1480    33.1240 ca         1 3CF      -0.143000
     14 O           66.2750    10.9110    29.5050 o          1 3CF      -0.824800
     15 HN          64.3460     7.8800    30.7940 hn         1 3CF       0.308300
     16 HNA         64.6390     8.3500    29.2810 hn         1 3CF       0.308300
     17 HA          63.3130     9.9940    30.5130 h1         1 3CF       0.002700
     18 HB          64.3380     9.4390    32.6890 hc         1 3CF       0.038700
     19 HBA         65.8870    10.0570    32.1320 hc         1 3CF       0.038700
     20 HZ          63.3470    15.1530    33.5420 ha         1 3CF       0.122000
     21 HD1         66.3990    12.3550    32.4030 ha         1 3CF       0.156000
     22 HD2         62.3240    11.0930    32.6580 ha         1 3CF       0.124000
     23 HE2         61.6500    13.3640    33.3220 ha         1 3CF       0.117000
@<TRIPOS>BOND
     1     1     3 1   
     2     1     6 1   
     3     1    14 1   
     4     2     6 1   
     5     2    15 1   
     6     2    16 1   
     7     4     5 3   
     8     4    12 1   
     9     6     7 1   
    10     6    17 1   
    11     7     8 1   
    12     7    18 1   
    13     7    19 1   
    14     8    10 ar  
    15     8    11 ar  
    16     9    12 ar  
    17     9    13 ar  
    18     9    20 1   
    19    10    12 ar  
    20    10    21 1   
    21    11    13 ar  
    22    11    22 1   
    23    13    23 1   
@<TRIPOS>SUBSTRUCTURE
     1 3CF         1 TEMP              0 ****  ****    0 ROOT
