@<TRIPOS>MOLECULE
3CF
   23    23     1     0     0
SMALL
No Charge or Current Charge


@<TRIPOS>ATOM
      1 C           65.1830    10.9180    29.5300 c          1 3CF       0.715000
      2 N           64.6580     8.4410    30.2390 n8         1 3CF      -0.969200
      3 OXT         64.4940    11.4010    28.6400 o          1 3CF      -0.719500
      4 C1          65.9380    14.9660    33.1690 cg         1 3CF       0.354000
      5 N1          66.7280    15.8200    33.2840 n1         1 3CF      -0.508000
      6 CA          64.4890     9.9080    30.5420 c3         1 3CF       0.019500
      7 CB          64.8840    10.2020    32.0150 c3         1 3CF      -0.019100
      8 CG          64.4420    11.5880    32.4750 ca         1 3CF      -0.036300
      9 CZ          63.6160    14.1480    33.3240 ca         1 3CF      -0.090000
     10 CD1         65.3820    12.6290    32.6110 ca         1 3CF      -0.040000
     11 CD2         63.0870    11.8370    32.7670 ca         1 3CF      -0.080000
     12 CE1         64.9730    13.9090    33.0340 ca         1 3CF      -0.035000
     13 CE2         62.6760    13.1120    33.1900 ca         1 3CF      -0.125000
     14 O           66.3810    11.1490    29.6420 o          1 3CF      -0.719500
     15 HN          64.0710     7.8910    30.8770 hn         1 3CF       0.363500
     16 HNA         64.2680     8.2420    29.3100 hn         1 3CF       0.363500
     17 HA          63.4080    10.0920    30.4650 h1         1 3CF       0.002700
     18 HB          64.4240     9.4500    32.6680 hc         1 3CF       0.038700
     19 HBA         65.9680    10.0810    32.1360 hc         1 3CF       0.038700
     20 HZ          63.2880    15.1320    33.6520 ha         1 3CF       0.104000
     21 HD1         66.4300    12.4430    32.3840 ha         1 3CF       0.138000
     22 HD2         62.3530    11.0410    32.6660 ha         1 3CF       0.106000
     23 HE2         61.6280    13.2980    33.4140 ha         1 3CF       0.099000
@<TRIPOS>BOND
     1     1     3 1   
     2     1     6 1   
     3     1    14 1   
     4     2     6 1   
     5     2    15 1   
     6     2    16 1   
     7     4     5 3   
     8     4    12 1   
     9     6     7 1   
    10     6    17 1   
    11     7     8 1   
    12     7    18 1   
    13     7    19 1   
    14     8    10 ar  
    15     8    11 ar  
    16     9    12 ar  
    17     9    13 ar  
    18     9    20 1   
    19    10    12 ar  
    20    10    21 1   
    21    11    13 ar  
    22    11    22 1   
    23    13    23 1   
@<TRIPOS>SUBSTRUCTURE
     1 3CF         1 TEMP              0 ****  ****    0 ROOT
