@<TRIPOS>MOLECULE
3CH
   13    13     1     0     0
SMALL
abcg2


@<TRIPOS>ATOM
      1 C4           1.4620    -0.0600    -0.4780 ca         1 3CH      -0.143000
      2 C5           1.7930     0.0410     0.8660 ca         1 3CH      -0.060000
      3 C3           0.1170    -0.0690    -0.8170 ca         1 3CH       0.157000
      4 C6           0.8160     0.1290     1.8450 ca         1 3CH      -0.207000
      5 C2          -0.8840     0.0170     0.1340 ca         1 3CH      -0.143000
      6 C1          -0.5290     0.1160     1.4780 ca         1 3CH       0.149100
      7 OH          -1.5280     0.1960     2.3740 oh         1 3CH      -0.529100
      8 CL          -0.3320    -0.1940    -2.4880 cl         1 3CH      -0.201000
      9 HC4          2.2280    -0.1280    -1.2380 ha         1 3CH       0.132000
     10 HC5          2.8360     0.0520     1.1550 ha         1 3CH       0.117000
     11 HC6          1.0970     0.2080     2.8880 ha         1 3CH       0.117000
     12 HC2         -1.9280     0.0060    -0.1520 ha         1 3CH       0.144000
     13 HO          -1.1750     0.2500     3.2690 ho         1 3CH       0.467000
@<TRIPOS>BOND
     1     1     2 ar  
     2     1     3 ar  
     3     1     9 1   
     4     2     4 ar  
     5     2    10 1   
     6     3     5 ar  
     7     3     8 1   
     8     4     6 ar  
     9     4    11 1   
    10     5     6 ar  
    11     5    12 1   
    12     6     7 1   
    13     7    13 1   
@<TRIPOS>SUBSTRUCTURE
     1 3CH         1 TEMP              0 ****  ****    0 ROOT
