@<TRIPOS>MOLECULE
3CH
   13    13     1     0     0
SMALL
No Charge or Current Charge


@<TRIPOS>ATOM
      1 C4           1.4590    -0.0580    -0.4770 ca         1 3CH      -0.143000
      2 C5           1.8070     0.0420     0.8810 ca         1 3CH      -0.060000
      3 C3           0.1060    -0.0720    -0.8550 ca         1 3CH       0.157000
      4 C6           0.7980     0.1280     1.8580 ca         1 3CH      -0.207000
      5 C2          -0.9000     0.0140     0.1190 ca         1 3CH      -0.143000
      6 C1          -0.5530     0.1140     1.4750 ca         1 3CH       0.149100
      7 OH          -1.5320     0.1980     2.4180 oh         1 3CH      -0.529100
      8 Cl          -0.3270    -0.1980    -2.5550 cl         1 3CH      -0.201000
      9 HC4          2.2350    -0.1250    -1.2350 ha         1 3CH       0.132000
     10 HC5          2.8550     0.0530     1.1760 ha         1 3CH       0.117000
     11 HC6          1.0740     0.2060     2.9070 ha         1 3CH       0.117000
     12 HC2         -1.9450     0.0030    -0.1760 ha         1 3CH       0.144000
     13 HO          -1.1060     0.2600     3.3000 ho         1 3CH       0.467000
@<TRIPOS>BOND
     1     1     2 ar  
     2     1     3 ar  
     3     1     9 1   
     4     2     4 ar  
     5     2    10 1   
     6     3     5 ar  
     7     3     8 1   
     8     4     6 ar  
     9     4    11 1   
    10     5     6 ar  
    11     5    12 1   
    12     6     7 1   
    13     7    13 1   
@<TRIPOS>SUBSTRUCTURE
     1 3CH         1 TEMP              0 ****  ****    0 ROOT
