@<TRIPOS>MOLECULE
3CJ
   21    21     1     0     0
SMALL
bcc


@<TRIPOS>ATOM
      1 C7           4.4710    -0.8000     0.3200 c3         1 3CJ      -0.092100
      2 C6           3.0050    -0.4990     0.5950 c3         1 3CJ      -0.075400
      3 C5           2.2940     0.0240    -0.6590 c3         1 3CJ      -0.060200
      4 C2           0.8590     0.3430    -0.4040 cc         1 3CJ       0.090400
      5 C3           0.3620     1.5960    -0.3340 cd         1 3CJ      -0.313200
      6 N1           0.0300    -0.7260    -0.1930 ns         1 3CJ      -0.406100
      7 C1          -1.2860    -0.6270     0.0970 cs         1 3CJ       0.579400
      8 S1          -2.2440    -1.9610     0.3480 s          1 3CJ      -0.573400
      9 N2          -1.7560     0.6380     0.1640 ns         1 3CJ      -0.538500
     10 C4          -1.0310     1.8130    -0.0380 c          1 3CJ       0.717700
     11 O1          -1.5860     2.8910     0.0460 o          1 3CJ      -0.582500
     12 H1           4.9720    -1.1530     1.2220 hc         1 3CJ       0.039367
     13 H2           4.5810    -1.5710    -0.4440 hc         1 3CJ       0.039367
     14 H3           4.9990     0.0900    -0.0250 hc         1 3CJ       0.039367
     15 H4           2.5080    -1.4020     0.9590 hc         1 3CJ       0.048700
     16 H5           2.9200     0.2460     1.3890 hc         1 3CJ       0.048700
     17 H6           2.7920     0.9250    -1.0160 hc         1 3CJ       0.069200
     18 H7           2.3620    -0.7190    -1.4600 hc         1 3CJ       0.069200
     19 H8           1.0000     2.4510    -0.4970 ha         1 3CJ       0.175000
     20 H10         -2.7410     0.7390     0.3720 hn         1 3CJ       0.360500
     21 H9           0.4010    -1.6640    -0.2680 hn         1 3CJ       0.363500
@<TRIPOS>BOND
     1     1     2 1   
     2     1    12 1   
     3     1    13 1   
     4     1    14 1   
     5     2     3 1   
     6     2    15 1   
     7     2    16 1   
     8     3     4 1   
     9     3    17 1   
    10     3    18 1   
    11     4     5 2   
    12     4     6 1   
    13     5    10 1   
    14     5    19 1   
    15     6     7 1   
    16     6    21 1   
    17     7     8 2   
    18     7     9 1   
    19     9    10 1   
    20     9    20 1   
    21    10    11 2   
@<TRIPOS>SUBSTRUCTURE
     1 3CJ         1 TEMP              0 ****  ****    0 ROOT
