@<TRIPOS>MOLECULE
3CJ
   21    21     1     0     0
SMALL
No Charge or Current Charge


@<TRIPOS>ATOM
      1 C7           4.5450    -0.8010     0.3190 c3         1 3CJ      -0.092100
      2 C6           3.0700    -0.4530     0.6010 c3         1 3CJ      -0.075400
      3 C5           2.2920    -0.0330    -0.6660 c3         1 3CJ      -0.060200
      4 C2           0.8580     0.3290    -0.3830 cc         1 3CJ       0.090400
      5 C3           0.3410     1.5930    -0.2670 cd         1 3CJ      -0.363200
      6 N1          -0.0170    -0.7290    -0.2270 ns         1 3CJ      -0.452600
      7 C1          -1.3500    -0.6280     0.0350 cs         1 3CJ       0.445400
      8 S1          -2.3390    -1.9540     0.2120 s          1 3CJ      -0.573400
      9 N2          -1.7970     0.6510     0.1380 ns         1 3CJ      -0.404500
     10 C4          -1.0840     1.8110     0.0140 c          1 3CJ       0.575200
     11 O1          -1.5950     2.9110     0.1270 o          1 3CJ      -0.507000
     12 H1           5.0540    -1.0910     1.2460 hc         1 3CJ       0.039367
     13 H2           4.6190    -1.6360    -0.3880 hc         1 3CJ       0.039367
     14 H3           5.0730     0.0610    -0.1060 hc         1 3CJ       0.039367
     15 H4           2.5810    -1.3210     1.0610 hc         1 3CJ       0.048700
     16 H5           3.0290     0.3610     1.3360 hc         1 3CJ       0.048700
     17 H6           2.7980     0.8260    -1.1250 hc         1 3CJ       0.069200
     18 H7           2.3370    -0.8400    -1.4070 hc         1 3CJ       0.069200
     19 H8           0.9420     2.4870    -0.3720 ha         1 3CJ       0.225000
     20 H10         -2.7800     0.7690     0.3320 hn         1 3CJ       0.360500
     21 H9           0.3350    -1.6780    -0.3070 hn         1 3CJ       0.477000
@<TRIPOS>BOND
     1     1     2 1   
     2     1    12 1   
     3     1    13 1   
     4     1    14 1   
     5     2     3 1   
     6     2    15 1   
     7     2    16 1   
     8     3     4 1   
     9     3    17 1   
    10     3    18 1   
    11     4     5 2   
    12     4     6 1   
    13     5    10 1   
    14     5    19 1   
    15     6     7 1   
    16     6    21 1   
    17     7     8 2   
    18     7     9 1   
    19     9    10 1   
    20     9    20 1   
    21    10    11 2   
@<TRIPOS>SUBSTRUCTURE
     1 3CJ         1 TEMP              0 ****  ****    0 ROOT
