@<TRIPOS>MOLECULE
3CL
   12    11     1     0     0
SMALL
abcg2


@<TRIPOS>ATOM
      1 O1          -0.4380     0.0220     2.9070 oh         1 3CL      -0.657000
      2 C2           0.4990     0.0190     1.8540 c3         1 3CL       0.163600
      3 C3          -0.2600     0.0210     0.5370 c3         1 3CL      -0.093400
      4 C4           0.7070     0.0210    -0.6270 c3         1 3CL       0.129600
      5 CL5         -0.1750     0.0250    -2.1980 cl         1 3CL      -0.284000
      6 HO1          0.0470     0.0070     3.7380 ho         1 3CL       0.445000
      7 H21          1.1560     0.8980     1.8970 h1         1 3CL       0.016700
      8 H22          1.1510    -0.8640     1.8970 h1         1 3CL       0.016700
      9 H31         -0.9020    -0.8610     0.4810 hc         1 3CL       0.069700
     10 H32         -0.9000     0.9040     0.4820 hc         1 3CL       0.069700
     11 H41          1.3440     0.9030    -0.6240 h1         1 3CL       0.061700
     12 H42          1.3400    -0.8650    -0.6260 h1         1 3CL       0.061700
@<TRIPOS>BOND
     1     1     2 1   
     2     1     6 1   
     3     2     3 1   
     4     2     7 1   
     5     2     8 1   
     6     3     4 1   
     7     3     9 1   
     8     3    10 1   
     9     4     5 1   
    10     4    11 1   
    11     4    12 1   
@<TRIPOS>SUBSTRUCTURE
     1 3CL         1 TEMP              0 ****  ****    0 ROOT
