@<TRIPOS>MOLECULE
3CL
   12    11     1     0     0
SMALL
No Charge or Current Charge


@<TRIPOS>ATOM
      1 O1          -0.4540     0.0170     2.9470 oh         1 3CL      -0.657000
      2 C2           0.4960     0.0170     1.8780 c3         1 3CL       0.163600
      3 C3          -0.2440     0.0210     0.5280 c3         1 3CL      -0.093400
      4 C4           0.7160     0.0210    -0.6750 c3         1 3CL       0.129600
      5 Cl5         -0.2020     0.0250    -2.2440 cl         1 3CL      -0.284000
      6 HO1          0.0600     0.0150     3.7860 ho         1 3CL       0.445000
      7 H21          1.1400     0.9040     1.9410 h1         1 3CL       0.016700
      8 H22          1.1370    -0.8730     1.9380 h1         1 3CL       0.016700
      9 H31         -0.8940    -0.8610     0.4690 hc         1 3CL       0.069700
     10 H32         -0.8900     0.9050     0.4720 hc         1 3CL       0.069700
     11 H41          1.3540     0.9140    -0.6590 h1         1 3CL       0.061700
     12 H42          1.3500    -0.8750    -0.6620 h1         1 3CL       0.061700
@<TRIPOS>BOND
     1     1     2 1   
     2     1     6 1   
     3     2     3 1   
     4     2     7 1   
     5     2     8 1   
     6     3     4 1   
     7     3     9 1   
     8     3    10 1   
     9     4     5 1   
    10     4    11 1   
    11     4    12 1   
@<TRIPOS>SUBSTRUCTURE
     1 3CL         1 TEMP              0 ****  ****    0 ROOT
