@<TRIPOS>MOLECULE
3CM
   70    72     1     0     0
SMALL
No Charge or Current Charge


@<TRIPOS>ATOM
      1 C1          -4.0320     0.4220    -0.8410 c6         1 3CM       0.364300
      2 C2          -5.0510     1.3890    -0.1420 c6         1 3CM       0.117300
      3 C3          -5.8800     0.5950     0.9060 c6         1 3CM       0.106300
      4 C4          -6.5510    -0.6420     0.2420 c6         1 3CM       0.151300
      5 C5          -5.4530    -1.5210    -0.4370 c6         1 3CM       0.169300
      6 C6          -6.0560    -2.7570    -1.1830 c3         1 3CM       0.169600
      7 O2          -4.4070     2.5230     0.4930 oh         1 3CM      -0.725000
      8 O3          -6.8680     1.4490     1.5120 oh         1 3CM      -0.667000
      9 O5          -4.7050    -0.7250    -1.3990 os         1 3CM      -0.455000
     10 O6          -5.0660    -3.5590    -1.8610 oh         1 3CM      -0.719000
     11 O1          -3.0100    -0.0400     0.0700 os         1 3CM      -0.496000
     12 O4          -7.2980    -1.3650     1.2360 oh         1 3CM      -0.719000
     13 C10          1.1830     0.7200     0.2510 c6         1 3CM       0.365300
     14 C20          0.3170     1.8140    -0.4540 c6         1 3CM       0.112300
     15 C30         -1.1560     1.6380    -0.0030 c6         1 3CM       0.164300
     16 C40         -1.6420     0.1900    -0.3500 c6         1 3CM       0.155300
     17 C50         -0.6760    -0.8400     0.3090 c6         1 3CM       0.162300
     18 C60         -1.0470    -2.3140    -0.0600 c3         1 3CM       0.164600
     19 O20          0.7740     3.1610    -0.1770 oh         1 3CM      -0.725000
     20 O30         -1.9640     2.6730    -0.5950 oh         1 3CM      -0.728000
     21 O50          0.6910    -0.5830    -0.1180 os         1 3CM      -0.465000
     22 O60         -0.1450    -3.2890     0.5060 oh         1 3CM      -0.714000
     23 C21          4.8930     0.2930    -0.0390 c3         1 3CM      -0.081400
     24 C31          6.0000    -0.5800     0.6000 c3         1 3CM      -0.071400
     25 C12          7.4320    -0.3870     0.0110 c6         1 3CM      -0.058700
     26 C22          8.4170    -1.4300     0.6140 c6         1 3CM      -0.071400
     27 C32          9.8450    -1.2720     0.0370 c6         1 3CM      -0.073400
     28 C42         10.3800     0.1630     0.2540 c6         1 3CM      -0.074400
     29 C52          9.4140     1.2110    -0.3490 c6         1 3CM      -0.073400
     30 C62          7.9830     1.0550     0.2220 c6         1 3CM      -0.071400
     31 HO6         -5.5520    -4.2620    -2.3530 ho         1 3CM       0.505000
     32 H61         -6.5940    -3.3720    -0.4490 h1         1 3CM       0.037200
     33 H62A        -6.8000    -2.3890    -1.9040 h1         1 3CM       0.037200
     34 H5          -4.7620    -1.8970     0.3320 h1         1 3CM       0.075700
     35 H1          -3.5640     0.9770    -1.6700 h2         1 3CM       0.084700
     36 H40         -1.5810     0.0450    -1.4390 h1         1 3CM       0.065700
     37 H30         -1.1840     1.7430     1.0920 h1         1 3CM       0.055700
     38 HO30        -1.3270     3.4260    -0.7010 ho         1 3CM       0.529000
     39 H20          0.3710     1.6230    -1.5370 h1         1 3CM       0.068700
     40 HO20         1.7560     3.1460    -0.2850 ho         1 3CM       0.527000
     41 H10          1.1140     0.8460     1.3430 h2         1 3CM       0.035700
     42 H111         3.4730     0.1420     1.5960 h1         1 3CM       0.036200
     43 H112         3.2490    -1.0780     0.3160 h1         1 3CM       0.036200
     44 H211         4.8940     0.1420    -1.1250 hc         1 3CM       0.053700
     45 H212         5.1060     1.3530     0.1430 hc         1 3CM       0.053700
     46 H311         6.0170    -0.3890     1.6800 hc         1 3CM       0.038700
     47 H312         5.7070    -1.6310     0.4840 hc         1 3CM       0.038700
     48 H12          7.3530    -0.5760    -1.0690 hc         1 3CM       0.047700
     49 H6           8.4500    -1.3230     1.7070 hc         1 3CM       0.038200
     50 H7          10.5210    -1.9970     0.5110 hc         1 3CM       0.037950
     51 H421        10.5080     0.3530     1.3290 hc         1 3CM       0.037700
     52 H422        11.3740     0.2650    -0.2030 hc         1 3CM       0.037700
     53 H8           9.7880     2.2230    -0.1450 hc         1 3CM       0.037950
     54 H9           7.3290     1.7900    -0.2650 hc         1 3CM       0.038200
     55 H50         -0.7300    -0.7390     1.4030 h1         1 3CM       0.059700
     56 H601        -2.0720    -2.5060     0.2870 h1         1 3CM       0.044700
     57 H602        -1.0560    -2.3980    -1.1560 h1         1 3CM       0.044700
     58 HO60        -0.4210    -4.1710     0.1620 ho         1 3CM       0.507000
     59 H2          -5.7380     1.7450    -0.9250 h1         1 3CM       0.089700
     60 HO2         -3.4810     2.5750     0.1080 ho         1 3CM       0.536000
     61 H3          -5.1850     0.2320     1.6790 h1         1 3CM       0.056700
     62 HO3         -6.4140     2.3180     1.6170 ho         1 3CM       0.463000
     63 H4          -7.2340    -0.2840    -0.5430 h1         1 3CM       0.049700
     64 HO4         -7.6880    -0.6610     1.8090 ho         1 3CM       0.525000
     65 H22          8.0550    -2.4480     0.4130 hc         1 3CM       0.038200
     66 H32          9.8390    -1.5070    -1.0370 hc         1 3CM       0.037950
     67 H52          9.3890     1.1030    -1.4430 hc         1 3CM       0.037950
     68 H62          7.9850     1.3000     1.2930 hc         1 3CM       0.038200
     69 O10          2.5570     0.8450    -0.1510 os         1 3CM      -0.456000
     70 C11          3.4900    -0.0240     0.5110 c3         1 3CM       0.163600
@<TRIPOS>BOND
     1     1     2 1   
     2     1     9 1   
     3     1    11 1   
     4     1    35 1   
     5     2     3 1   
     6     2     7 1   
     7     2    59 1   
     8     3     4 1   
     9     3     8 1   
    10     3    61 1   
    11     4     5 1   
    12     4    12 1   
    13     4    63 1   
    14     5     6 1   
    15     5     9 1   
    16     5    34 1   
    17     6    10 1   
    18     6    32 1   
    19     6    33 1   
    20     7    60 1   
    21     8    62 1   
    22    10    31 1   
    23    11    16 1   
    24    12    64 1   
    25    13    14 1   
    26    13    21 1   
    27    13    41 1   
    28    13    69 1   
    29    14    15 1   
    30    14    19 1   
    31    14    39 1   
    32    15    16 1   
    33    15    20 1   
    34    15    37 1   
    35    16    17 1   
    36    16    36 1   
    37    17    18 1   
    38    17    21 1   
    39    17    55 1   
    40    18    22 1   
    41    18    56 1   
    42    18    57 1   
    43    19    40 1   
    44    20    38 1   
    45    22    58 1   
    46    23    24 1   
    47    23    44 1   
    48    23    45 1   
    49    23    70 1   
    50    24    25 1   
    51    24    46 1   
    52    24    47 1   
    53    25    26 1   
    54    25    30 1   
    55    25    48 1   
    56    26    27 1   
    57    26    49 1   
    58    26    65 1   
    59    27    28 1   
    60    27    50 1   
    61    27    66 1   
    62    28    29 1   
    63    28    51 1   
    64    28    52 1   
    65    29    30 1   
    66    29    53 1   
    67    29    67 1   
    68    30    54 1   
    69    30    68 1   
    70    42    70 1   
    71    43    70 1   
    72    69    70 1   
@<TRIPOS>SUBSTRUCTURE
     1 3CM         1 TEMP              0 ****  ****    0 ROOT
