@<TRIPOS>MOLECULE
3CM
   70    72     1     0     0
SMALL
bcc


@<TRIPOS>ATOM
      1 C1          -3.8420     0.2990    -1.0990 c6         1 3CM       0.317900
      2 C2          -5.0490     1.1670    -0.7400 c6         1 3CM       0.094100
      3 C3          -5.7710     0.5710     0.4660 c6         1 3CM       0.083100
      4 C4          -6.1400    -0.8800     0.1790 c6         1 3CM       0.128100
      5 C5          -4.8890    -1.6600    -0.2300 c6         1 3CM       0.146100
      6 C6          -5.2210    -3.0670    -0.6800 c3         1 3CM       0.146400
      7 O2          -4.7150     2.5160    -0.5530 oh         1 3CM      -0.602800
      8 O3          -6.9650     1.2640     0.7490 oh         1 3CM      -0.604800
      9 O5          -4.2450    -1.0160    -1.3200 os         1 3CM      -0.408600
     10 O6          -4.0210    -3.7630    -0.9200 oh         1 3CM      -0.596800
     11 O1          -2.9050     0.3800    -0.0600 os         1 3CM      -0.449600
     12 O4          -6.6930    -1.5110     1.3080 oh         1 3CM      -0.596800
     13 C10          1.1300     0.9100     0.6030 c6         1 3CM       0.318900
     14 C20          0.3180     2.1800     0.3690 c6         1 3CM       0.089100
     15 C30         -1.1600     1.8600     0.5350 c6         1 3CM       0.141100
     16 C40         -1.5630     0.6920    -0.3560 c6         1 3CM       0.132100
     17 C50         -0.6340    -0.5010    -0.0840 c6         1 3CM       0.139100
     18 C60         -0.8940    -1.6710    -1.0080 c3         1 3CM       0.141400
     19 O20          0.6400     3.1850     1.2960 oh         1 3CM      -0.602800
     20 O30         -1.9700     2.9640     0.2010 oh         1 3CM      -0.605800
     21 O50          0.7020    -0.0920    -0.2850 os         1 3CM      -0.418600
     22 O60         -0.0340    -2.7260    -0.6420 oh         1 3CM      -0.591800
     23 C21          4.7210     0.4310     0.2370 c3         1 3CM      -0.081400
     24 C31          5.8030    -0.3900     0.9330 c3         1 3CM      -0.071400
     25 C12          7.0830    -0.5610     0.1180 c6         1 3CM      -0.058700
     26 C22          8.0780    -1.4580     0.8550 c6         1 3CM      -0.071400
     27 C32          9.3660    -1.6620     0.0640 c6         1 3CM      -0.073400
     28 C42         10.0110    -0.3270    -0.2940 c6         1 3CM      -0.074400
     29 C52          9.0290     0.5730    -1.0360 c6         1 3CM      -0.073400
     30 C62          7.7430     0.7720    -0.2380 c6         1 3CM      -0.071400
     31 HO6         -4.2450    -4.6660    -1.1630 ho         1 3CM       0.406000
     32 H61         -5.8160    -3.5490     0.1030 h1         1 3CM       0.037200
     33 H62A        -5.8510    -3.0140    -1.5790 h1         1 3CM       0.037200
     34 H5          -4.2110    -1.7170     0.6340 h1         1 3CM       0.075700
     35 H1          -3.3990     0.6400    -2.0420 h2         1 3CM       0.084700
     36 H40         -1.4570     0.9870    -1.4110 h1         1 3CM       0.065700
     37 H30         -1.3330     1.5600     1.5810 h1         1 3CM       0.055700
     38 HO30        -1.8000     3.6730     0.8320 ho         1 3CM       0.430000
     39 H20          0.4940     2.5110    -0.6660 h1         1 3CM       0.068700
     40 HO20         1.5220     3.5150     1.0970 ho         1 3CM       0.428000
     41 H10          0.9890     0.5710     1.6460 h2         1 3CM       0.035700
     42 H111         3.4900     0.5410     2.0070 h1         1 3CM       0.036200
     43 H112         3.0410    -0.7410     0.8770 h1         1 3CM       0.036200
     44 H211         4.6110     0.0970    -0.8000 hc         1 3CM       0.053700
     45 H212         5.0080     1.4850     0.2040 hc         1 3CM       0.053700
     46 H311         6.0450     0.0710     1.8980 hc         1 3CM       0.038700
     47 H312         5.4070    -1.3850     1.1650 hc         1 3CM       0.038700
     48 H12          6.8140    -1.0620    -0.8240 hc         1 3CM       0.047700
     49 H6           8.3170    -1.0020     1.8230 hc         1 3CM       0.038200
     50 H7          10.0640    -2.2800     0.6350 hc         1 3CM       0.037950
     51 H421        10.3340     0.1750     0.6250 hc         1 3CM       0.037700
     52 H422        10.9110    -0.4860    -0.8940 hc         1 3CM       0.037700
     53 H8           9.4890     1.5400    -1.2540 hc         1 3CM       0.037950
     54 H9           7.0520     1.4010    -0.8070 hc         1 3CM       0.038200
     55 H50         -0.7830    -0.8280     0.9580 h1         1 3CM       0.059700
     56 H601        -1.9420    -1.9680    -0.9280 h1         1 3CM       0.044700
     57 H602        -0.7240    -1.3490    -2.0460 h1         1 3CM       0.044700
     58 HO60        -0.2680    -3.4920    -1.1730 ho         1 3CM       0.408000
     59 H2          -5.7330     1.1320    -1.5970 h1         1 3CM       0.089700
     60 HO2         -3.8730     2.5850    -0.0740 ho         1 3CM       0.437000
     61 H3          -5.0990     0.5910     1.3380 h1         1 3CM       0.056700
     62 HO3         -6.7350     2.1520     1.0380 ho         1 3CM       0.424000
     63 H4          -6.8470    -0.8940    -0.6660 h1         1 3CM       0.049700
     64 HO4         -7.4730    -1.0150     1.5760 ho         1 3CM       0.426000
     65 H22          7.6130    -2.4230     1.0760 hc         1 3CM       0.038200
     66 H32          9.1420    -2.2150    -0.8560 hc         1 3CM       0.037950
     67 H52          8.7840     0.1210    -2.0040 hc         1 3CM       0.037950
     68 H62          7.9700     1.3160     0.6870 hc         1 3CM       0.038200
     69 O10          2.4530     1.1800     0.3370 os         1 3CM      -0.409600
     70 C11          3.3880     0.2960     0.9430 c3         1 3CM       0.140400
@<TRIPOS>BOND
     1     1     2 1   
     2     1     9 1   
     3     1    11 1   
     4     1    35 1   
     5     2     3 1   
     6     2     7 1   
     7     2    59 1   
     8     3     4 1   
     9     3     8 1   
    10     3    61 1   
    11     4     5 1   
    12     4    12 1   
    13     4    63 1   
    14     5     6 1   
    15     5     9 1   
    16     5    34 1   
    17     6    10 1   
    18     6    32 1   
    19     6    33 1   
    20     7    60 1   
    21     8    62 1   
    22    10    31 1   
    23    11    16 1   
    24    12    64 1   
    25    13    14 1   
    26    13    21 1   
    27    13    41 1   
    28    13    69 1   
    29    14    15 1   
    30    14    19 1   
    31    14    39 1   
    32    15    16 1   
    33    15    20 1   
    34    15    37 1   
    35    16    17 1   
    36    16    36 1   
    37    17    18 1   
    38    17    21 1   
    39    17    55 1   
    40    18    22 1   
    41    18    56 1   
    42    18    57 1   
    43    19    40 1   
    44    20    38 1   
    45    22    58 1   
    46    23    24 1   
    47    23    44 1   
    48    23    45 1   
    49    23    70 1   
    50    24    25 1   
    51    24    46 1   
    52    24    47 1   
    53    25    26 1   
    54    25    30 1   
    55    25    48 1   
    56    26    27 1   
    57    26    49 1   
    58    26    65 1   
    59    27    28 1   
    60    27    50 1   
    61    27    66 1   
    62    28    29 1   
    63    28    51 1   
    64    28    52 1   
    65    29    30 1   
    66    29    53 1   
    67    29    67 1   
    68    30    54 1   
    69    30    68 1   
    70    42    70 1   
    71    43    70 1   
    72    69    70 1   
@<TRIPOS>SUBSTRUCTURE
     1 3CM         1 TEMP              0 ****  ****    0 ROOT
