@<TRIPOS>MOLECULE
3CN
   13    12     1     0     0
SMALL
abcg2


@<TRIPOS>ATOM
      1 CA           1.9320    -0.0890    -0.0470 c3         1 3CN      -0.090100
      2 CB           0.5500     0.5470    -0.0030 c3         1 3CN      -0.078400
      3 CC          -0.5660    -0.4860    -0.0400 c3         1 3CN       0.148800
      4 ND          -1.8750     0.1500     0.0030 n8         1 3CN      -0.997200
      5 HA1          2.0810    -0.7680     0.7940 hc         1 3CN       0.032033
      6 HA2          2.0720    -0.6660    -0.9630 hc         1 3CN       0.032033
      7 HA3          2.7200     0.6630    -0.0070 hc         1 3CN       0.032033
      8 HB1          0.4440     1.1550     0.9000 hc         1 3CN       0.045200
      9 HB2          0.4350     1.2320    -0.8500 hc         1 3CN       0.045200
     10 HC1         -0.4210    -1.1330    -0.9180 h1         1 3CN       0.025200
     11 HC2         -0.4740    -1.1370     0.8340 h1         1 3CN       0.025200
     12 HND1        -2.0300     0.6490    -0.8650 hn         1 3CN       0.390500
     13 HND2        -2.5950    -0.5590     0.0390 hn         1 3CN       0.390500
@<TRIPOS>BOND
     1     1     2 1   
     2     1     5 1   
     3     1     6 1   
     4     1     7 1   
     5     2     3 1   
     6     2     8 1   
     7     2     9 1   
     8     3     4 1   
     9     3    10 1   
    10     3    11 1   
    11     4    12 1   
    12     4    13 1   
@<TRIPOS>SUBSTRUCTURE
     1 3CN         1 TEMP              0 ****  ****    0 ROOT
