@<TRIPOS>MOLECULE
3CN
   13    12     1     0     0
SMALL
No Charge or Current Charge


@<TRIPOS>ATOM
      1 CA           1.9620    -0.0880    -0.0440 c3         1 3CN      -0.090100
      2 CB           0.5580     0.5460    -0.0040 c3         1 3CN      -0.078400
      3 CC          -0.5740    -0.5020    -0.0170 c3         1 3CN       0.148800
      4 ND          -1.9020     0.1360     0.0250 n8         1 3CN      -0.997200
      5 HA1          2.1190    -0.7400     0.8240 hc         1 3CN       0.032033
      6 HA2          2.0920    -0.6870    -0.9540 hc         1 3CN       0.032033
      7 HA3          2.7340     0.6900    -0.0330 hc         1 3CN       0.032033
      8 HB1          0.4730     1.1640     0.8990 hc         1 3CN       0.045200
      9 HB2          0.4470     1.2160    -0.8650 hc         1 3CN       0.045200
     10 HC1         -0.5050    -1.1120    -0.9280 h1         1 3CN       0.025200
     11 HC2         -0.4750    -1.1640     0.8540 h1         1 3CN       0.025200
     12 HND1        -2.0320     0.6910    -0.8300 hn         1 3CN       0.390500
     13 HND2        -2.6240    -0.5910    -0.0490 hn         1 3CN       0.390500
@<TRIPOS>BOND
     1     1     2 1   
     2     1     5 1   
     3     1     6 1   
     4     1     7 1   
     5     2     3 1   
     6     2     8 1   
     7     2     9 1   
     8     3     4 1   
     9     3    10 1   
    10     3    11 1   
    11     4    12 1   
    12     4    13 1   
@<TRIPOS>SUBSTRUCTURE
     1 3CN         1 TEMP              0 ****  ****    0 ROOT
