@<TRIPOS>MOLECULE
3CP
   91    93     1     0     0
SMALL
abcg2


@<TRIPOS>ATOM
      1 C8         -27.5090   111.4730    41.1910 cc         1 3CP       0.509700
      2 N9         -28.6920   111.8560    41.7910 na         1 3CP      -0.237300
      3 C4         -28.7910   113.2190    41.6140 ca         1 3CP       0.103500
      4 C5         -27.6560   113.5840    40.8930 ca         1 3CP      -0.074600
      5 N7         -26.8670   112.4750    40.6390 nd         1 3CP      -0.643100
      6 N3         -29.7550   114.0470    42.0350 nb         1 3CP      -0.161000
      7 C2         -29.5200   115.3080    41.6790 ca         1 3CP       0.101900
      8 N1         -28.4820   115.7950    40.9890 nb         1 3CP      -0.351000
      9 C6         -27.5200   114.9480    40.5760 ca         1 3CP       0.397900
     10 N6         -26.4680   115.4370    39.8970 nv         1 3CP      -1.104900
     11 C1         -29.6140   111.0400    42.5590 c5         1 3CP       0.279300
     12 C10        -29.8980   109.6620    41.9450 c5         1 3CP       0.151300
     13 O2         -30.9330   109.7230    40.9990 oh         1 3CP      -0.840000
     14 C3         -30.1600   108.8020    43.1960 c5         1 3CP       0.176300
     15 O3         -31.5010   108.9130    43.6430 os         1 3CP      -0.604400
     16 C7         -29.2270   109.4290    44.2330 c5         1 3CP       0.130300
     17 O4         -29.0810   110.8200    43.8560 os         1 3CP      -0.489000
     18 C9         -27.8640   108.7810    44.3640 c3         1 3CP       0.214600
     19 O5         -27.1340   108.8560    43.1380 os         1 3CP      -0.638400
     20 P1         -26.7820   107.5670    42.2250 p5         1 3CP       1.486800
     21 O11        -26.4560   108.1180    40.8750 o          1 3CP      -0.861000
     22 O12        -27.8270   106.5100    42.3760 o          1 3CP      -0.861000
     23 O6         -25.3820   107.0150    42.8460 os         1 3CP      -0.738800
     24 P2         -24.7610   106.8130    44.3430 p5         1 3CP       1.498800
     25 O21        -24.5450   108.1400    44.9890 o          1 3CP      -0.872500
     26 O22        -23.6180   105.8660    44.1700 o          1 3CP      -0.872500
     27 O7         -25.9730   106.1150    45.1580 os         1 3CP      -0.633400
     28 CPB        -26.3730   104.7700    44.8610 c3         1 3CP       0.215600
     29 CPA        -27.3990   104.2820    45.8860 c3         1 3CP      -0.032000
     30 CP7        -26.7990   104.3100    47.3190 c3         1 3CP       0.093300
     31 CP9        -27.8040   102.8580    45.4830 c3         1 3CP      -0.082100
     32 CP8        -28.6340   105.1950    45.8570 c3         1 3CP      -0.082100
     33 OP3        -27.8410   103.9960    48.2450 oh         1 3CP      -0.671000
     34 CP6        -25.6050   103.3640    47.4890 c          1 3CP       0.548100
     35 OP2        -24.4900   103.6560    47.0530 o          1 3CP      -0.558100
     36 NP2        -25.8730   102.2150    48.1280 ns         1 3CP      -0.527900
     37 CP5        -24.8750   101.2000    48.3960 c3         1 3CP       0.117000
     38 CP4        -24.1530   101.4320    49.7310 c3         1 3CP      -0.185400
     39 CP3        -23.0870   100.3780    49.9450 c          1 3CP       0.592100
     40 OP1        -22.0990   100.3050    49.2110 o          1 3CP      -0.598100
     41 NP1        -23.3020    99.5230    50.9640 ns         1 3CP      -0.522900
     42 CP2        -22.4270    98.4000    51.2540 c3         1 3CP       0.118000
     43 CP1        -22.7720    97.1830    50.3980 c3         1 3CP       0.054600
     44 P3         -32.5840   107.7200    43.1550 p5         1 3CP       1.297900
     45 O31        -32.5240   107.7790    41.6160 o          1 3CP      -0.910167
     46 O32        -33.8910   108.2060    43.7450 o          1 3CP      -0.910167
     47 O33        -32.0550   106.4100    43.7150 o          1 3CP      -0.910167
     48 S          -21.6450    95.8060    50.7920 ss         1 3CP      -0.539000
     49 CS1        -22.2490    94.5700    49.5930 c3         1 3CP       0.107600
     50 CS2        -21.4450    93.2800    49.7080 c3         1 3CP      -0.040400
     51 CS3        -21.9060    92.2310    48.6980 c3         1 3CP      -0.202400
     52 CS4        -23.3410    91.7040    48.9060 c          1 3CP       0.704000
     53 OS4        -23.9880    91.4020    47.8680 o          1 3CP      -0.745000
     54 OS5        -23.7490    91.5760    50.0900 o          1 3CP      -0.745000
     55 H8         -27.1730   110.4470    41.2010 h5         1 3CP       0.153800
     56 H2         -30.2620   116.0370    41.9860 h5         1 3CP       0.005100
     57 H61        -26.4530   116.4080    39.6330 hn         1 3CP       0.479000
     58 H62        -25.7760   114.8170    39.5110 hn         1 3CP       0.479000
     59 H1         -30.5400   111.6120    42.6230 h2         1 3CP       0.084700
     60 H7         -28.9830   109.2860    41.4830 h1         1 3CP       0.050700
     61 HO'2       -31.5820   108.9690    41.1900 ho         1 3CP       0.611000
     62 H3         -29.8950   107.7610    43.0180 h1         1 3CP       0.120700
     63 H4         -29.7110   109.3960    45.2110 h1         1 3CP       0.055700
     64 H5'1       -27.2810   109.3090    45.1200 h1         1 3CP       0.041200
     65 H5'2       -27.9840   107.7470    44.6810 h1         1 3CP       0.041200
     66 HB1        -26.8380   104.7540    43.8730 h1         1 3CP       0.055700
     67 HB2        -25.4940   104.1270    44.8570 h1         1 3CP       0.055700
     68 HP7        -26.4230   105.3190    47.5030 h1         1 3CP       0.098700
     69 HP91       -28.4940   102.4310    46.2110 hc         1 3CP       0.042033
     70 HP92       -28.3030   102.8750    44.5120 hc         1 3CP       0.042033
     71 HP93       -26.9370   102.1990    45.4050 hc         1 3CP       0.042033
     72 HP81       -29.4340   104.7870    46.4720 hc         1 3CP       0.042033
     73 HP82       -28.3940   106.1920    46.2260 hc         1 3CP       0.042033
     74 HP83       -28.9980   105.2890    44.8330 hc         1 3CP       0.042033
     75 HOP3       -27.5960   104.3440    49.1110 ho         1 3CP       0.409000
     76 HN2        -26.8070   102.1000    48.4910 hn         1 3CP       0.319500
     77 HP51       -25.3740   100.2300    48.4060 h1         1 3CP       0.059700
     78 HP52       -24.1520   101.2040    47.5830 h1         1 3CP       0.059700
     79 HP41       -23.6610   102.4060    49.7050 hc         1 3CP       0.061700
     80 HP42       -24.8770   101.4350    50.5460 hc         1 3CP       0.061700
     81 HN1        -24.1520    99.6130    51.4970 hn         1 3CP       0.305500
     82 HP21       -21.3980    98.7080    51.0700 h1         1 3CP       0.053200
     83 HP22       -22.5280    98.1610    52.3130 h1         1 3CP       0.053200
     84 HP11       -23.7990    96.8700    50.5860 h1         1 3CP       0.070200
     85 HP12       -22.6690    97.4330    49.3410 h1         1 3CP       0.070200
     86 HS11       -23.3050    94.3830    49.7930 h1         1 3CP       0.070200
     87 HS12       -22.1570    94.9930    48.5900 h1         1 3CP       0.070200
     88 HS21       -20.3860    93.4990    49.5480 hc         1 3CP       0.028200
     89 HS22       -21.5440    92.8790    50.7190 hc         1 3CP       0.028200
     90 HS31       -21.8190    92.6200    47.6810 hc         1 3CP       0.019700
     91 HS32       -21.2410    91.3630    48.7600 hc         1 3CP       0.019700
@<TRIPOS>BOND
     1     1     2 1   
     2     1     5 2   
     3     1    55 1   
     4     2     3 1   
     5     2    11 1   
     6     3     4 ar  
     7     3     6 ar  
     8     4     5 1   
     9     4     9 ar  
    10     6     7 ar  
    11     7     8 ar  
    12     7    56 1   
    13     8     9 ar  
    14     9    10 1   
    15    10    57 1   
    16    10    58 1   
    17    11    12 1   
    18    11    17 1   
    19    11    59 1   
    20    12    13 1   
    21    12    14 1   
    22    12    60 1   
    23    13    61 1   
    24    14    15 1   
    25    14    16 1   
    26    14    62 1   
    27    15    44 1   
    28    16    17 1   
    29    16    18 1   
    30    16    63 1   
    31    18    19 1   
    32    18    64 1   
    33    18    65 1   
    34    19    20 1   
    35    20    21 1   
    36    20    22 1   
    37    20    23 1   
    38    23    24 1   
    39    24    25 1   
    40    24    26 1   
    41    24    27 1   
    42    27    28 1   
    43    28    29 1   
    44    28    66 1   
    45    28    67 1   
    46    29    30 1   
    47    29    31 1   
    48    29    32 1   
    49    30    33 1   
    50    30    34 1   
    51    30    68 1   
    52    31    69 1   
    53    31    70 1   
    54    31    71 1   
    55    32    72 1   
    56    32    73 1   
    57    32    74 1   
    58    33    75 1   
    59    34    35 2   
    60    34    36 1   
    61    36    37 1   
    62    36    76 1   
    63    37    38 1   
    64    37    77 1   
    65    37    78 1   
    66    38    39 1   
    67    38    79 1   
    68    38    80 1   
    69    39    40 2   
    70    39    41 1   
    71    41    42 1   
    72    41    81 1   
    73    42    43 1   
    74    42    82 1   
    75    42    83 1   
    76    43    48 1   
    77    43    84 1   
    78    43    85 1   
    79    44    45 1   
    80    44    46 1   
    81    44    47 1   
    82    48    49 1   
    83    49    50 1   
    84    49    86 1   
    85    49    87 1   
    86    50    51 1   
    87    50    88 1   
    88    50    89 1   
    89    51    52 1   
    90    51    90 1   
    91    51    91 1   
    92    52    53 1   
    93    52    54 1   
@<TRIPOS>SUBSTRUCTURE
     1 3CP         1 TEMP              0 ****  ****    0 ROOT
