@<TRIPOS>MOLECULE
3CP
   91    93     1     0     0
SMALL
No Charge or Current Charge


@<TRIPOS>ATOM
      1 C8         -28.4580   111.8130    40.3200 cc         1 3CP       0.509700
      2 N9         -28.7720   112.1140    41.6510 na         1 3CP      -0.237300
      3 C4         -28.6120   113.4610    41.8180 ca         1 3CP       0.103500
      4 C5         -28.2020   113.9380    40.5960 ca         1 3CP      -0.074600
      5 N7         -28.0980   112.9250    39.6370 nd         1 3CP      -0.643100
      6 N3         -28.7910   114.2700    42.8830 nb         1 3CP      -0.161000
      7 C2         -28.5380   115.5840    42.6720 ca         1 3CP       0.101900
      8 N1         -28.1290   116.1560    41.5130 nb         1 3CP      -0.351000
      9 C6         -27.9580   115.3250    40.4730 ca         1 3CP       0.397900
     10 N6         -27.5550   115.9080    39.3120 nv         1 3CP      -1.104900
     11 C1         -29.2320   111.1590    42.6590 c5         1 3CP       0.279300
     12 C10        -29.6310   109.7300    42.1770 c5         1 3CP       0.151300
     13 O2         -30.8030   109.6710    41.3330 oh         1 3CP      -0.840000
     14 C3         -29.7270   109.0360    43.5840 c5         1 3CP       0.176300
     15 O3         -30.9110   109.4880    44.3110 os         1 3CP      -0.604400
     16 C7         -28.4890   109.6700    44.3230 c5         1 3CP       0.130300
     17 O4         -28.1660   110.8950    43.5930 os         1 3CP      -0.489000
     18 C9         -27.2240   108.7580    44.4470 c3         1 3CP       0.214600
     19 O5         -26.4620   108.7320    43.2210 os         1 3CP      -0.638400
     20 P1         -26.5460   107.5020    42.1860 p5         1 3CP       1.486800
     21 O11        -26.4380   108.0440    40.7990 o          1 3CP      -0.861000
     22 O12        -27.8000   106.7120    42.3260 o          1 3CP      -0.861000
     23 O6         -25.2460   106.6600    42.4930 os         1 3CP      -0.738800
     24 P2         -24.7340   106.3170    43.9430 p5         1 3CP       1.498800
     25 O21        -24.2120   107.5080    44.6750 o          1 3CP      -0.872500
     26 O22        -23.6670   105.2770    43.8530 o          1 3CP      -0.872500
     27 O7         -26.0550   105.7110    44.6370 os         1 3CP      -0.633400
     28 CPB        -26.4400   104.3590    44.3440 c3         1 3CP       0.215600
     29 CPA        -27.5940   103.9120    45.3000 c3         1 3CP      -0.032000
     30 CP7        -27.1500   104.0280    46.8090 c3         1 3CP       0.093300
     31 CP9        -27.9660   102.4430    44.9420 c3         1 3CP      -0.082100
     32 CP8        -28.8450   104.8040    45.0440 c3         1 3CP      -0.082100
     33 OP3        -28.2600   103.7050    47.6970 oh         1 3CP      -0.671000
     34 CP6        -25.8730   103.1890    47.1540 c          1 3CP       0.548100
     35 OP2        -24.7350   103.6220    47.0450 o          1 3CP      -0.558100
     36 NP2        -26.1230   101.9330    47.6730 ns         1 3CP      -0.527900
     37 CP5        -25.1020   100.9830    48.1180 c3         1 3CP       0.117000
     38 CP4        -24.5780   101.3240    49.5240 c3         1 3CP      -0.185400
     39 CP3        -23.5570   100.2860    49.9810 c          1 3CP       0.592100
     40 OP1        -22.4240   100.2360    49.5280 o          1 3CP      -0.598100
     41 NP1        -23.9940    99.4340    50.9690 ns         1 3CP      -0.522900
     42 CP2        -23.1900    98.3600    51.5640 c3         1 3CP       0.118000
     43 CP1        -22.9880    97.1660    50.6080 c3         1 3CP       0.054600
     44 P3         -32.2620   108.6380    44.1280 p5         1 3CP       1.297900
     45 O31        -32.5990   108.6270    42.6810 o          1 3CP      -0.910167
     46 O32        -33.3540   109.2960    44.8930 o          1 3CP      -0.910167
     47 O33        -32.0560   107.2550    44.6260 o          1 3CP      -0.910167
     48 S          -22.0180    95.8150    51.4300 ss         1 3CP      -0.539000
     49 CS1        -21.9740    94.5730    50.0540 c3         1 3CP       0.107600
     50 CS2        -21.1780    93.3200    50.4820 c3         1 3CP      -0.040400
     51 CS3        -21.0220    92.2510    49.3700 c3         1 3CP      -0.202400
     52 CS4        -22.3870    91.6680    48.9600 c          1 3CP       0.704000
     53 OS4        -22.9900    92.1990    48.0410 o          1 3CP      -0.745000
     54 OS5        -22.8230    90.7220    49.5970 o          1 3CP      -0.745000
     55 H8         -28.5110   110.8050    39.9190 h5         1 3CP       0.153800
     56 H2         -28.6780   116.2490    43.5220 h5         1 3CP       0.005100
     57 H61        -27.6720   116.9130    39.2150 hn         1 3CP       0.479000
     58 H62        -27.6210   115.3490    38.4640 hn         1 3CP       0.479000
     59 H1         -30.0760   111.6350    43.1770 h2         1 3CP       0.084700
     60 H7         -28.7860   109.2940    41.6280 h1         1 3CP       0.050700
     61 HO'2       -31.5520   109.2430    41.9010 ho         1 3CP       0.611000
     62 H3         -29.6870   107.9380    43.5380 h1         1 3CP       0.120700
     63 H4         -28.7780   109.9480    45.3460 h1         1 3CP       0.055700
     64 H5'1       -26.5990   109.1560    45.2580 h1         1 3CP       0.041200
     65 H5'2       -27.5430   107.7550    44.7530 h1         1 3CP       0.041200
     66 HB1        -26.7790   104.2770    43.3020 h1         1 3CP       0.055700
     67 HB2        -25.5890   103.6740    44.4600 h1         1 3CP       0.055700
     68 HP7        -26.8530   105.0720    46.9790 h1         1 3CP       0.098700
     69 HP91       -28.7650   102.0640    45.5900 hc         1 3CP       0.042033
     70 HP92       -28.3190   102.3730    43.9050 hc         1 3CP       0.042033
     71 HP93       -27.1020   101.7750    45.0400 hc         1 3CP       0.042033
     72 HP81       -29.7170   104.4380    45.5990 hc         1 3CP       0.042033
     73 HP82       -28.6650   105.8390    45.3540 hc         1 3CP       0.042033
     74 HP83       -29.1120   104.8080    43.9810 hc         1 3CP       0.042033
     75 HOP3       -28.0080   103.9900    48.6030 ho         1 3CP       0.409000
     76 HN2        -27.1020   101.6790    47.7620 hn         1 3CP       0.319500
     77 HP51       -25.5420    99.9760    48.1240 h1         1 3CP       0.059700
     78 HP52       -24.2710   100.9830    47.3990 h1         1 3CP       0.059700
     79 HP41       -24.0930   102.3060    49.4880 hc         1 3CP       0.061700
     80 HP42       -25.4280   101.3520    50.2160 hc         1 3CP       0.061700
     81 HN1        -24.9450    99.5630    51.2960 hn         1 3CP       0.305500
     82 HP21       -22.2120    98.7660    51.8550 h1         1 3CP       0.053200
     83 HP22       -23.6950    98.0120    52.4740 h1         1 3CP       0.053200
     84 HP11       -23.9670    96.7730    50.3030 h1         1 3CP       0.070200
     85 HP12       -22.4540    97.4980    49.7090 h1         1 3CP       0.070200
     86 HS11       -23.0030    94.2940    49.7920 h1         1 3CP       0.070200
     87 HS12       -21.5030    95.0270    49.1720 h1         1 3CP       0.070200
     88 HS21       -20.1780    93.6340    50.8050 hc         1 3CP       0.028200
     89 HS22       -21.6630    92.8670    51.3550 hc         1 3CP       0.028200
     90 HS31       -20.5470    92.7600    48.5220 hc         1 3CP       0.019700
     91 HS32       -20.3960    91.4680    49.8150 hc         1 3CP       0.019700
@<TRIPOS>BOND
     1     1     2 1   
     2     1     5 2   
     3     1    55 1   
     4     2     3 1   
     5     2    11 1   
     6     3     4 ar  
     7     3     6 ar  
     8     4     5 1   
     9     4     9 ar  
    10     6     7 ar  
    11     7     8 ar  
    12     7    56 1   
    13     8     9 ar  
    14     9    10 1   
    15    10    57 1   
    16    10    58 1   
    17    11    12 1   
    18    11    17 1   
    19    11    59 1   
    20    12    13 1   
    21    12    14 1   
    22    12    60 1   
    23    13    61 1   
    24    14    15 1   
    25    14    16 1   
    26    14    62 1   
    27    15    44 1   
    28    16    17 1   
    29    16    18 1   
    30    16    63 1   
    31    18    19 1   
    32    18    64 1   
    33    18    65 1   
    34    19    20 1   
    35    20    21 1   
    36    20    22 1   
    37    20    23 1   
    38    23    24 1   
    39    24    25 1   
    40    24    26 1   
    41    24    27 1   
    42    27    28 1   
    43    28    29 1   
    44    28    66 1   
    45    28    67 1   
    46    29    30 1   
    47    29    31 1   
    48    29    32 1   
    49    30    33 1   
    50    30    34 1   
    51    30    68 1   
    52    31    69 1   
    53    31    70 1   
    54    31    71 1   
    55    32    72 1   
    56    32    73 1   
    57    32    74 1   
    58    33    75 1   
    59    34    35 2   
    60    34    36 1   
    61    36    37 1   
    62    36    76 1   
    63    37    38 1   
    64    37    77 1   
    65    37    78 1   
    66    38    39 1   
    67    38    79 1   
    68    38    80 1   
    69    39    40 2   
    70    39    41 1   
    71    41    42 1   
    72    41    81 1   
    73    42    43 1   
    74    42    82 1   
    75    42    83 1   
    76    43    48 1   
    77    43    84 1   
    78    43    85 1   
    79    44    45 1   
    80    44    46 1   
    81    44    47 1   
    82    48    49 1   
    83    49    50 1   
    84    49    86 1   
    85    49    87 1   
    86    50    51 1   
    87    50    88 1   
    88    50    89 1   
    89    51    52 1   
    90    51    90 1   
    91    51    91 1   
    92    52    53 1   
    93    52    54 1   
@<TRIPOS>SUBSTRUCTURE
     1 3CP         1 TEMP              0 ****  ****    0 ROOT
