@<TRIPOS>MOLECULE
3CQ
   78    83     1     0     0
SMALL
bcc


@<TRIPOS>ATOM
      1 N42          1.4860     0.4900    -0.6940 nc         1 3CQ      -0.662000
      2 C43          0.2910    -0.0230    -1.1460 cc         1 3CQ       0.357800
      3 C44          0.2030    -1.5020    -1.4660 c          1 3CQ       0.835100
      4 O45         -0.9370    -1.9620    -1.6830 o          1 3CQ      -0.804800
      5 O46          1.2780    -2.1260    -1.4860 o          1 3CQ      -0.804800
      6 C2         -11.8860    -1.3950     0.1580 c1         1 3CQ      -0.149100
      7 C3          10.2040    -4.9540    -0.3290 ca         1 3CQ      -0.130000
      8 C4           9.2800    -5.5440     0.5390 ca         1 3CQ      -0.139000
      9 C5           7.1110     4.3710     0.6350 ca         1 3CQ      -0.145000
     10 C6          -8.5700    -0.9850     1.3690 ca         1 3CQ      -0.120000
     11 C7           7.2480     2.9960     0.7350 ca         1 3CQ      -0.110000
     12 C8           5.8520     4.9130     0.4650 ca         1 3CQ      -0.108000
     13 C9          10.1060    -3.6190    -0.6740 ca         1 3CQ      -0.092000
     14 C10         -7.2240    -0.7260     1.3530 ca         1 3CQ       0.088900
     15 C11          8.2400    -4.8060     1.0790 ca         1 3CQ      -0.076000
     16 C12         -7.2720    -0.2940    -0.9930 ca         1 3CQ      -0.210000
     17 C13         -9.3020    -0.9030     0.1770 ca         1 3CQ      -0.010000
     18 C14          6.1280     2.1740     0.6720 ca         1 3CQ      -0.149600
     19 C15          4.7190     4.1050     0.3940 ca         1 3CQ      -0.075300
     20 C16          4.8450     2.7210     0.5020 ca         1 3CQ      -0.006300
     21 C17          9.0650    -2.8610    -0.1390 ca         1 3CQ       0.127400
     22 C18         -6.5380    -0.3760     0.1850 ca         1 3CQ       0.143100
     23 C19          8.1450    -3.4650     0.7300 ca         1 3CQ      -0.102100
     24 C22          7.8060    -1.1170     0.2600 cc         1 3CQ       0.447800
     25 C23          6.3200     0.7090     0.8450 c          1 3CQ       0.686700
     26 C24          3.3750     4.7460     0.1910 c6         1 3CQ      -0.038100
     27 C25          3.6330     1.8230     0.4190 c6         1 3CQ       0.241100
     28 C26          2.2410     3.8180     0.5680 c6         1 3CQ       0.215800
     29 C20         -0.7250     0.8750    -1.2690 cd         1 3CQ      -0.122700
     30 C21          1.4150     1.7600    -0.4650 cd         1 3CQ       0.679300
     31 C27        -15.4890    -0.8800    -0.4290 c3         1 3CQ       0.148600
     32 C28        -14.0210     0.5090     0.8430 c3         1 3CQ       0.148600
     33 C29        -13.3180    -1.6790     0.1400 c3         1 3CQ       0.257900
     34 C30         -2.1600     0.7170    -1.6500 c3         1 3CQ       0.026900
     35 C31         -3.0280     0.3400    -0.4490 c3         1 3CQ      -0.079400
     36 C32         -4.4770     0.1810    -0.8550 c3         1 3CQ       0.138400
     37 C33         -8.6350    -0.5560    -0.9950 ca         1 3CQ      -0.077000
     38 N34          8.8410    -1.5270    -0.3850 nd         1 3CQ      -0.621100
     39 N36          7.3890     0.1860     0.1760 ns         1 3CQ      -0.467400
     40 N35          2.4620     2.5300    -0.0570 nh         1 3CQ      -0.764300
     41 N37        -14.1120    -0.5070    -0.1840 n3         1 3CQ      -0.705600
     42 O38          5.6080     0.0070     1.5370 o          1 3CQ      -0.543100
     43 O39         -5.2260    -0.1520     0.3090 os         1 3CQ      -0.298900
     44 S40          6.9660    -2.2940     1.2410 ss         1 3CQ       0.030900
     45 S41         -0.1580     2.4470    -0.7820 ss         1 3CQ      -0.403300
     46 H2          11.0070    -5.5530    -0.7380 ha         1 3CQ       0.125000
     47 H3           9.3790    -6.5900     0.7950 ha         1 3CQ       0.126000
     48 H4           7.9800     5.0110     0.6980 ha         1 3CQ       0.130000
     49 H5          -9.0540    -1.2520     2.2990 ha         1 3CQ       0.148000
     50 H6           8.2320     2.5710     0.8890 ha         1 3CQ       0.131000
     51 H7           5.7360     5.9880     0.3890 ha         1 3CQ       0.126000
     52 H8          10.8210    -3.1590    -1.3450 ha         1 3CQ       0.141000
     53 H9           7.5260    -5.2630     1.7500 ha         1 3CQ       0.141000
     54 H10         -6.7940    -0.0250    -1.9250 ha         1 3CQ       0.146000
     55 H11          3.3090     5.6620     0.7810 hc         1 3CQ       0.054200
     56 H12          3.2660     5.0390    -0.8580 hc         1 3CQ       0.054200
     57 H13          3.8290     0.9970    -0.2630 h1         1 3CQ       0.090700
     58 H14          3.4330     1.3780     1.4010 h1         1 3CQ       0.090700
     59 H15          2.1710     3.7090     1.6580 h1         1 3CQ       0.046200
     60 H16          1.3000     4.2500     0.2290 h1         1 3CQ       0.046200
     61 H17        -16.0610    -0.0010    -0.7280 h1         1 3CQ       0.031367
     62 H18        -15.5450    -1.6040    -1.2430 h1         1 3CQ       0.031367
     63 H19        -15.9860    -1.3190     0.4490 h1         1 3CQ       0.031367
     64 H20        -14.4050     0.1720     1.8190 h1         1 3CQ       0.031367
     65 H21        -12.9850     0.8210     0.9800 h1         1 3CQ       0.031367
     66 H22        -14.5920     1.3880     0.5430 h1         1 3CQ       0.031367
     67 H23        -13.5100    -2.4470    -0.6140 h1         1 3CQ       0.044200
     68 H24        -13.6030    -2.1230     1.1100 h1         1 3CQ       0.044200
     69 H25         -2.5300     1.6460    -2.0950 hc         1 3CQ       0.050700
     70 H26         -2.2400    -0.0550    -2.4130 hc         1 3CQ       0.050700
     71 H27         -2.6540    -0.5960    -0.0320 hc         1 3CQ       0.069700
     72 H28         -2.9460     1.1080     0.3240 hc         1 3CQ       0.069700
     73 H29         -4.8560     1.1120    -1.2920 h1         1 3CQ       0.034200
     74 H30         -4.5820    -0.6080    -1.6080 h1         1 3CQ       0.034200
     75 H31         -9.1840    -0.4870    -1.9250 ha         1 3CQ       0.137000
     76 H32          7.9200     0.7690    -0.4570 hn         1 3CQ       0.341500
     77 C1         -10.7020    -1.1720     0.1700 cg         1 3CQ      -0.088000
     78 F47         -6.5210    -0.8090     2.4920 f          1 3CQ      -0.131900
@<TRIPOS>BOND
     1     1     2 1   
     2     1    30 2   
     3     2     3 1   
     4     2    29 2   
     5     3     4 1   
     6     3     5 1   
     7     6    33 1   
     8     6    77 3   
     9     7     8 ar  
    10     7    13 ar  
    11     7    46 1   
    12     8    15 ar  
    13     8    47 1   
    14     9    11 ar  
    15     9    12 ar  
    16     9    48 1   
    17    10    14 ar  
    18    10    17 ar  
    19    10    49 1   
    20    11    18 ar  
    21    11    50 1   
    22    12    19 ar  
    23    12    51 1   
    24    13    21 ar  
    25    13    52 1   
    26    14    22 ar  
    27    14    78 1   
    28    15    23 ar  
    29    15    53 1   
    30    16    22 ar  
    31    16    37 ar  
    32    16    54 1   
    33    17    37 ar  
    34    17    77 1   
    35    18    20 ar  
    36    18    25 1   
    37    19    20 ar  
    38    19    26 1   
    39    20    27 1   
    40    21    23 ar  
    41    21    38 1   
    42    22    43 1   
    43    23    44 1   
    44    24    38 2   
    45    24    39 1   
    46    24    44 1   
    47    25    39 1   
    48    25    42 2   
    49    26    28 1   
    50    26    55 1   
    51    26    56 1   
    52    27    40 1   
    53    27    57 1   
    54    27    58 1   
    55    28    40 1   
    56    28    59 1   
    57    28    60 1   
    58    29    34 1   
    59    29    45 1   
    60    30    40 1   
    61    30    45 1   
    62    31    41 1   
    63    31    61 1   
    64    31    62 1   
    65    31    63 1   
    66    32    41 1   
    67    32    64 1   
    68    32    65 1   
    69    32    66 1   
    70    33    41 1   
    71    33    67 1   
    72    33    68 1   
    73    34    35 1   
    74    34    69 1   
    75    34    70 1   
    76    35    36 1   
    77    35    71 1   
    78    35    72 1   
    79    36    43 1   
    80    36    73 1   
    81    36    74 1   
    82    37    75 1   
    83    39    76 1   
@<TRIPOS>SUBSTRUCTURE
     1 3CQ         1 TEMP              0 ****  ****    0 ROOT
