@<TRIPOS>MOLECULE
3CQ
   78    83     1     0     0
SMALL
No Charge or Current Charge


@<TRIPOS>ATOM
      1 N42          1.3180     0.2800    -0.5200 nc         1 3CQ      -0.662000
      2 C43          0.0930    -0.2090    -0.9640 cc         1 3CQ       0.292500
      3 C44         -0.1050    -1.6820    -1.3550 c          1 3CQ       0.624500
      4 O45         -1.1970    -2.0920    -1.7320 o          1 3CQ      -0.699500
      5 O46          0.8510    -2.4490    -1.2810 o          1 3CQ      -0.699500
      6 C2         -12.3210    -1.1970     0.4430 c1         1 3CQ      -0.149100
      7 C3          11.4470    -4.4820    -0.3740 ca         1 3CQ      -0.112000
      8 C4          10.5130    -5.3420     0.2420 ca         1 3CQ      -0.121000
      9 C5           7.1190     4.2570     0.4230 ca         1 3CQ      -0.127000
     10 C6          -8.9410    -1.1180     1.5920 ca         1 3CQ      -0.102000
     11 C7           7.3140     2.8740     0.5170 ca         1 3CQ      -0.092000
     12 C8           5.8240     4.7790     0.3560 ca         1 3CQ      -0.090000
     13 C9          11.1390    -3.1190    -0.5590 ca         1 3CQ      -0.074000
     14 C10         -7.5480    -0.9370     1.5790 ca         1 3CQ       0.124000
     15 C11          9.2700    -4.8410     0.6720 ca         1 3CQ      -0.058000
     16 C12         -7.6470    -0.2680    -0.7620 ca         1 3CQ      -0.192000
     17 C13         -9.6920    -0.8730     0.4280 ca         1 3CQ      -0.010000
     18 C14          6.2150     1.9770     0.5420 ca         1 3CQ      -0.149600
     19 C15          4.7140     3.9200     0.3870 ca         1 3CQ      -0.075300
     20 C16          4.8900     2.5140     0.4770 ca         1 3CQ      -0.006300
     21 C17          9.8960    -2.6270    -0.1270 ca         1 3CQ       0.127400
     22 C18         -6.8880    -0.5110     0.4060 ca         1 3CQ       0.143100
     23 C19          8.9910    -3.4790     0.4730 ca         1 3CQ      -0.229000
     24 C22          8.2730    -1.1880     0.2500 cc         1 3CQ       0.447800
     25 C23          6.4790     0.4810     0.6510 c          1 3CQ       0.619700
     26 C24          3.3160     4.5350     0.2950 c6         1 3CQ      -0.038100
     27 C25          3.6450     1.5890     0.4640 c6         1 3CQ       0.241100
     28 C26          2.2230     3.6040     0.8440 c6         1 3CQ       0.215800
     29 C20         -0.9200     0.7530    -1.0150 cd         1 3CQ      -0.202300
     30 C21          1.2240     1.5590    -0.2380 cd         1 3CQ       0.679300
     31 C27        -15.9000    -0.7680    -0.6670 c3         1 3CQ       0.148600
     32 C28        -14.3150     1.0310    -0.1310 c3         1 3CQ       0.148600
     33 C29        -13.7860    -1.3240     0.4620 c3         1 3CQ       0.257900
     34 C30         -2.3670     0.6460    -1.4420 c3         1 3CQ       0.026900
     35 C31         -3.2850     0.1730    -0.2950 c3         1 3CQ      -0.079400
     36 C32         -4.7660     0.0880    -0.7090 c3         1 3CQ       0.161600
     37 C33         -9.0430    -0.4490    -0.7460 ca         1 3CQ      -0.059000
     38 N34          9.5020    -1.3010    -0.2660 nd         1 3CQ      -0.621100
     39 N36          7.7120     0.0660     0.2080 ns         1 3CQ      -0.400400
     40 N35          2.3410     2.2730     0.2060 nh         1 3CQ      -0.764300
     41 N37        -14.4790    -0.4030    -0.4760 n3         1 3CQ      -0.705600
     42 O38          5.6770    -0.2960     1.1430 o          1 3CQ      -0.543100
     43 O39         -5.5150    -0.3440     0.4390 os         1 3CQ      -0.322100
     44 S40          7.5100    -2.6550     0.9330 ss         1 3CQ       0.157800
     45 S41         -0.3330     2.3240    -0.4860 ss         1 3CQ      -0.258400
     46 H2          12.4070    -4.8710    -0.7050 ha         1 3CQ       0.107000
     47 H3          10.7530    -6.3930     0.3840 ha         1 3CQ       0.108000
     48 H4           7.9750     4.9280     0.4080 ha         1 3CQ       0.112000
     49 H5          -9.4320    -1.4460     2.5050 ha         1 3CQ       0.130000
     50 H6           8.3380     2.5150     0.5940 ha         1 3CQ       0.113000
     51 H7           5.6820     5.8550     0.2800 ha         1 3CQ       0.108000
     52 H8          11.8550    -2.4530    -1.0330 ha         1 3CQ       0.123000
     53 H9           8.5430    -5.4960     1.1470 ha         1 3CQ       0.123000
     54 H10         -7.1780     0.0610    -1.6840 ha         1 3CQ       0.128000
     55 H11          3.2820     5.4870     0.8400 hc         1 3CQ       0.054200
     56 H12          3.0950     4.7700    -0.7550 hc         1 3CQ       0.054200
     57 H13          3.8180     0.8180    -0.3010 h1         1 3CQ       0.090700
     58 H14          3.5880     1.0690     1.4320 h1         1 3CQ       0.090700
     59 H15          2.3470     3.5050     1.9330 h1         1 3CQ       0.046200
     60 H16          1.2450     4.0730     0.6730 h1         1 3CQ       0.046200
     61 H17        -16.3690    -0.1230    -1.4230 h1         1 3CQ       0.031367
     62 H18        -15.9930    -1.8080    -1.0080 h1         1 3CQ       0.031367
     63 H19        -16.4620    -0.6610     0.2710 h1         1 3CQ       0.031367
     64 H20        -14.7480     1.2480     0.8550 h1         1 3CQ       0.031367
     65 H21        -13.2560     1.3180    -0.1120 h1         1 3CQ       0.031367
     66 H22        -14.8170     1.6670    -0.8720 h1         1 3CQ       0.031367
     67 H23        -14.0240    -2.3660     0.2060 h1         1 3CQ       0.044200
     68 H24        -14.1380    -1.1580     1.4900 h1         1 3CQ       0.044200
     69 H25         -2.7190     1.6280    -1.7820 hc         1 3CQ       0.050700
     70 H26         -2.4780    -0.0130    -2.3110 hc         1 3CQ       0.050700
     71 H27         -2.9540    -0.8120     0.0550 hc         1 3CQ       0.069700
     72 H28         -3.1890     0.8650     0.5500 hc         1 3CQ       0.069700
     73 H29         -5.1090     1.0750    -1.0460 h1         1 3CQ       0.034200
     74 H30         -4.8760    -0.6270    -1.5360 h1         1 3CQ       0.034200
     75 H31         -9.6210    -0.2590    -1.6490 ha         1 3CQ       0.119000
     76 H32          8.2800     0.7870    -0.2090 hn         1 3CQ       0.341500
     77 C1         -11.1140    -1.0540     0.4390 cg         1 3CQ      -0.088000
     78 F47         -6.8430    -1.1770     2.7100 f          1 3CQ      -0.167000
@<TRIPOS>BOND
     1     1     2 1   
     2     1    30 2   
     3     2     3 1   
     4     2    29 2   
     5     3     4 1   
     6     3     5 1   
     7     6    33 1   
     8     6    77 3   
     9     7     8 ar  
    10     7    13 ar  
    11     7    46 1   
    12     8    15 ar  
    13     8    47 1   
    14     9    11 ar  
    15     9    12 ar  
    16     9    48 1   
    17    10    14 ar  
    18    10    17 ar  
    19    10    49 1   
    20    11    18 ar  
    21    11    50 1   
    22    12    19 ar  
    23    12    51 1   
    24    13    21 ar  
    25    13    52 1   
    26    14    22 ar  
    27    14    78 1   
    28    15    23 ar  
    29    15    53 1   
    30    16    22 ar  
    31    16    37 ar  
    32    16    54 1   
    33    17    37 ar  
    34    17    77 1   
    35    18    20 ar  
    36    18    25 1   
    37    19    20 ar  
    38    19    26 1   
    39    20    27 1   
    40    21    23 ar  
    41    21    38 1   
    42    22    43 1   
    43    23    44 1   
    44    24    38 2   
    45    24    39 1   
    46    24    44 1   
    47    25    39 1   
    48    25    42 2   
    49    26    28 1   
    50    26    55 1   
    51    26    56 1   
    52    27    40 1   
    53    27    57 1   
    54    27    58 1   
    55    28    40 1   
    56    28    59 1   
    57    28    60 1   
    58    29    34 1   
    59    29    45 1   
    60    30    40 1   
    61    30    45 1   
    62    31    41 1   
    63    31    61 1   
    64    31    62 1   
    65    31    63 1   
    66    32    41 1   
    67    32    64 1   
    68    32    65 1   
    69    32    66 1   
    70    33    41 1   
    71    33    67 1   
    72    33    68 1   
    73    34    35 1   
    74    34    69 1   
    75    34    70 1   
    76    35    36 1   
    77    35    71 1   
    78    35    72 1   
    79    36    43 1   
    80    36    73 1   
    81    36    74 1   
    82    37    75 1   
    83    39    76 1   
@<TRIPOS>SUBSTRUCTURE
     1 3CQ         1 TEMP              0 ****  ****    0 ROOT
