@<TRIPOS>MOLECULE
3CR
   21    21     1     0     0
SMALL
No Charge or Current Charge


@<TRIPOS>ATOM
      1 O01          3.0610     1.6280     0.4700 o          1 3CR      -0.703000
      2 C02          2.1060     1.3280    -0.2440 c          1 3CR       0.633700
      3 O03          1.5760     2.1640    -0.9690 o          1 3CR      -0.703000
      4 C04          1.5680    -0.1190    -0.2270 ce         1 3CR       0.293300
      5 N05          2.2020    -1.0050     0.5140 n2         1 3CR      -0.328700
      6 O06          1.6620    -2.3050     0.5720 oh         1 3CR      -0.560000
      7 C07          0.4080    -0.4660    -1.1770 c3         1 3CR      -0.092400
      8 C08         -0.9720    -0.3340    -0.5380 ca         1 3CR      -0.043300
      9 C09         -1.6060    -1.4580     0.0270 ca         1 3CR      -0.099000
     10 C10         -2.8780    -1.3370     0.6150 ca         1 3CR      -0.128000
     11 C11         -3.5240    -0.0910     0.6410 ca         1 3CR      -0.135000
     12 C12         -2.8990     1.0340     0.0780 ca         1 3CR      -0.128000
     13 C13         -1.6280     0.9130    -0.5090 ca         1 3CR      -0.099000
     14 H2           2.2690    -2.8070     1.1680 ho         1 3CR       0.439000
     15 H3           0.4450     0.1790    -2.0630 hc         1 3CR       0.059200
     16 H4           0.5360    -1.4730    -1.5910 hc         1 3CR       0.059200
     17 H5          -1.1130    -2.4280     0.0110 ha         1 3CR       0.128500
     18 H6          -3.3600    -2.2090     1.0490 ha         1 3CR       0.094000
     19 H7          -4.5080     0.0030     1.0960 ha         1 3CR       0.090000
     20 H8          -3.3990     2.0000     0.0970 ha         1 3CR       0.094000
     21 H9          -1.1540     1.7900    -0.9450 ha         1 3CR       0.128500
@<TRIPOS>BOND
     1     1     2 1   
     2     2     3 1   
     3     2     4 1   
     4     4     5 2   
     5     4     7 1   
     6     5     6 1   
     7     6    14 1   
     8     7     8 1   
     9     7    15 1   
    10     7    16 1   
    11     8     9 ar  
    12     8    13 ar  
    13     9    10 ar  
    14     9    17 1   
    15    10    11 ar  
    16    10    18 1   
    17    11    12 ar  
    18    11    19 1   
    19    12    13 ar  
    20    12    20 1   
    21    13    21 1   
@<TRIPOS>SUBSTRUCTURE
     1 3CR         1 TEMP              0 ****  ****    0 ROOT
