@<TRIPOS>MOLECULE
3CR
   21    21     1     0     0
SMALL
abcg2


@<TRIPOS>ATOM
      1 O01          2.9510     1.6820     0.4160 o          1 3CR      -0.703000
      2 C02          2.0820     1.3460    -0.4030 c          1 3CR       0.633700
      3 O03          1.6010     2.0350    -1.3230 o          1 3CR      -0.703000
      4 C04          1.5200    -0.0770    -0.2880 ce         1 3CR       0.293300
      5 N05          2.0230    -0.8020     0.6280 n2         1 3CR      -0.328700
      6 O06          1.4780    -2.0530     0.6990 oh         1 3CR      -0.560000
      7 C07          0.4210    -0.5230    -1.2130 c3         1 3CR      -0.092400
      8 C08         -0.9330    -0.3960    -0.5570 ca         1 3CR      -0.043300
      9 C09         -1.6430    -1.5190    -0.1420 ca         1 3CR      -0.099000
     10 C10         -2.8860    -1.3910     0.4680 ca         1 3CR      -0.128000
     11 C11         -3.4340    -0.1330     0.6790 ca         1 3CR      -0.135000
     12 C12         -2.7320     0.9940     0.2700 ca         1 3CR      -0.128000
     13 C13         -1.4930     0.8630    -0.3410 ca         1 3CR      -0.099000
     14 H2           1.9610    -2.4770     1.4160 ho         1 3CR       0.439000
     15 H3           0.4510     0.1020    -2.1040 hc         1 3CR       0.059200
     16 H4           0.5790    -1.5560    -1.5280 hc         1 3CR       0.059200
     17 H5          -1.2240    -2.5040    -0.3020 ha         1 3CR       0.128500
     18 H6          -3.4250    -2.2780     0.7780 ha         1 3CR       0.094000
     19 H7          -4.4000    -0.0310     1.1560 ha         1 3CR       0.090000
     20 H8          -3.1520     1.9800     0.4260 ha         1 3CR       0.094000
     21 H9          -0.9520     1.7450    -0.6590 ha         1 3CR       0.128500
@<TRIPOS>BOND
     1     1     2 1   
     2     2     3 1   
     3     2     4 1   
     4     4     5 2   
     5     4     7 1   
     6     5     6 1   
     7     6    14 1   
     8     7     8 1   
     9     7    15 1   
    10     7    16 1   
    11     8     9 ar  
    12     8    13 ar  
    13     9    10 ar  
    14     9    17 1   
    15    10    11 ar  
    16    10    18 1   
    17    11    12 ar  
    18    11    19 1   
    19    12    13 ar  
    20    12    20 1   
    21    13    21 1   
@<TRIPOS>SUBSTRUCTURE
     1 3CR         1 TEMP              0 ****  ****    0 ROOT
