@<TRIPOS>MOLECULE
3CS
   79    83     1     0     0
SMALL
No Charge or Current Charge


@<TRIPOS>ATOM
      1 C1          -8.5530    -1.2300    -0.2960 ca         1 3CS      -0.084000
      2 C2          -9.8630    -1.3290    -0.8040 ca         1 3CS      -0.090000
      3 C3         -10.3550    -2.5690    -1.2400 ca         1 3CS      -0.113000
      4 C7          -8.0590     0.0110     0.1420 ca         1 3CS      -0.073000
      5 C8          -6.7490     0.0670     0.6410 ca         1 3CS      -0.130000
      6 C9          -5.9770    -1.1090     0.6850 ca         1 3CS       0.372300
      7 C10         -4.5480    -1.0790     1.2320 c3         1 3CS       0.113300
      8 C11         -2.4370     0.1400     0.8060 ca         1 3CS       0.113100
      9 C12         -1.7630     1.1070     0.0380 ca         1 3CS      -0.126000
     10 C13         -1.7520    -0.5480     1.8370 ca         1 3CS      -0.195000
     11 C14         -0.3920    -0.2790     2.0780 ca         1 3CS      -0.075000
     12 C15          0.2510     0.6970     1.2960 ca         1 3CS      -0.094200
     13 C16         -0.4140     1.3990     0.3260 ca         1 3CS      -0.011800
     14 C19          2.8390    -1.1110     1.6900 ca         1 3CS      -0.083300
     15 C20          3.0420    -2.1250     2.6470 ca         1 3CS      -0.097000
     16 C21          3.2710    -3.4510     2.2400 ca         1 3CS      -0.082000
     17 C22          3.1080    -2.7670    -0.0880 ca         1 3CS      -0.082000
     18 C24          3.3020    -3.7700     0.8740 ca         1 3CS       0.199000
     19 N26         -6.4560    -2.3090     0.2650 nb         1 3CS      -0.681000
     20 C30         -1.1060     3.7320    -1.7240 c3         1 3CS      -0.168400
     21 C31         -0.8430     5.2060    -3.8240 c3         1 3CS      -0.085100
     22 C32         -2.8850     5.3970    -2.3710 c3         1 3CS      -0.085100
     23 C33         -1.3530     5.1420    -2.3570 c3         1 3CS      -0.029000
     24 C34         -0.6810     6.2570    -1.5110 c3         1 3CS      -0.085100
     25 C4          -9.5410    -3.7100    -1.1690 ca         1 3CS      -0.108000
     26 C5          -8.2330    -3.6100    -0.6620 ca         1 3CS      -0.082000
     27 C6          -7.7190    -2.3760    -0.2190 ca         1 3CS       0.276000
     28 N17          1.5880     1.0540     1.3340 na         1 3CS      -0.084700
     29 C18          2.5870     0.3250     2.1480 c3         1 3CS       0.107900
     30 C23          2.8780    -1.4400     0.3170 ca         1 3CS      -0.097000
     31 I25          3.6550    -5.8140     0.2480 i          1 3CS      -0.338000
     32 O27         -3.7610    -0.1090     0.5060 os         1 3CS      -0.362100
     33 C28          0.5530     2.2950    -0.2910 cc         1 3CS      -0.290400
     34 C29          0.3380     3.2910    -1.3890 c          1 3CS       0.623300
     35 O35          1.2760     3.7480    -2.0260 o          1 3CS      -0.540100
     36 C36          1.7820     2.0630     0.3540 cd         1 3CS       0.095700
     37 C37          3.1420     2.7250     0.1440 c3         1 3CS      -0.036200
     38 C38          2.3310     5.0740     0.8130 c3         1 3CS      -0.066600
     39 C39          3.4880     3.6390     2.5330 c3         1 3CS      -0.066600
     40 C40          3.4430     4.0000     1.0230 c3         1 3CS      -0.174000
     41 C41          4.8510     4.5860     0.6470 c          1 3CS       0.724000
     42 O42          5.7110     3.8240     0.2270 o          1 3CS      -0.724500
     43 O43          5.0170     5.7980     0.6730 o          1 3CS      -0.724500
     44 H2         -10.4990    -0.4480    -0.8610 ha         1 3CS       0.113000
     45 H3         -11.3670    -2.6460    -1.6330 ha         1 3CS       0.110000
     46 H7          -8.6720     0.9090     0.0980 ha         1 3CS       0.118000
     47 H8          -6.3300     1.0070     0.9890 ha         1 3CS       0.146000
     48 H101        -4.5900    -0.8190     2.2970 h1         1 3CS       0.054700
     49 H102        -4.1010    -2.0770     1.1430 h1         1 3CS       0.054700
     50 H12         -2.3040     1.5840    -0.7680 ha         1 3CS       0.123000
     51 H13         -2.2470    -1.3030     2.4400 ha         1 3CS       0.109000
     52 H14          0.1430    -0.8290     2.8480 ha         1 3CS       0.113000
     53 H20          3.0200    -1.8880     3.7100 ha         1 3CS       0.126000
     54 H21          3.4250    -4.2310     2.9810 ha         1 3CS       0.124000
     55 H22          3.1350    -3.0180    -1.1440 ha         1 3CS       0.124000
     56 H301        -1.6780     3.6590    -0.7930 hc         1 3CS       0.055200
     57 H302        -1.5430     2.9510    -2.3560 hc         1 3CS       0.055200
     58 H311        -1.2730     4.3950    -4.4240 hc         1 3CS       0.032922
     59 H312        -1.1260     6.1570    -4.2920 hc         1 3CS       0.032922
     60 H313         0.2480     5.1300    -3.8830 hc         1 3CS       0.032922
     61 H321        -3.2960     5.3860    -1.3540 hc         1 3CS       0.032922
     62 H322        -3.1200     6.3710    -2.8160 hc         1 3CS       0.032922
     63 H323        -3.4060     4.6260    -2.9540 hc         1 3CS       0.032922
     64 H341         0.4110     6.1880    -1.5480 hc         1 3CS       0.032922
     65 H342        -0.9580     7.2500    -1.8850 hc         1 3CS       0.032922
     66 H343        -0.9910     6.1920    -0.4610 hc         1 3CS       0.032922
     67 H4          -9.9200    -4.6720    -1.5070 ha         1 3CS       0.111000
     68 H5          -7.6080    -4.4970    -0.6100 ha         1 3CS       0.129000
     69 H181         2.2390     0.3240     3.1880 h1         1 3CS       0.084200
     70 H182         3.5410     0.8600     2.1370 h1         1 3CS       0.084200
     71 H23          2.7310    -0.6720    -0.4390 ha         1 3CS       0.126000
     72 H371         3.9270     1.9800     0.3170 hc         1 3CS       0.082200
     73 H372         3.2800     2.9860    -0.9090 hc         1 3CS       0.082200
     74 H381         1.3370     4.6780     1.0520 hc         1 3CS       0.020200
     75 H382         2.4930     5.9450     1.4590 hc         1 3CS       0.020200
     76 H383         2.3240     5.4260    -0.2250 hc         1 3CS       0.020200
     77 H391         4.2730     2.9010     2.7360 hc         1 3CS       0.020200
     78 H392         3.7110     4.5280     3.1350 hc         1 3CS       0.020200
     79 H393         2.5290     3.2360     2.8790 hc         1 3CS       0.020200
@<TRIPOS>BOND
     1     1     2 ar  
     2     1     4 ar  
     3     1    27 ar  
     4     2     3 ar  
     5     2    44 1   
     6     3    25 ar  
     7     3    45 1   
     8     4     5 ar  
     9     4    46 1   
    10     5     6 ar  
    11     5    47 1   
    12     6     7 1   
    13     6    19 ar  
    14     7    32 1   
    15     7    48 1   
    16     7    49 1   
    17     8     9 ar  
    18     8    10 ar  
    19     8    32 1   
    20     9    13 ar  
    21     9    50 1   
    22    10    11 ar  
    23    10    51 1   
    24    11    12 ar  
    25    11    52 1   
    26    12    13 ar  
    27    12    28 1   
    28    13    33 1   
    29    14    15 ar  
    30    14    29 1   
    31    14    30 ar  
    32    15    16 ar  
    33    15    53 1   
    34    16    18 ar  
    35    16    54 1   
    36    17    18 ar  
    37    17    30 ar  
    38    17    55 1   
    39    18    31 1   
    40    19    27 ar  
    41    20    23 1   
    42    20    34 1   
    43    20    56 1   
    44    20    57 1   
    45    21    23 1   
    46    21    58 1   
    47    21    59 1   
    48    21    60 1   
    49    22    23 1   
    50    22    61 1   
    51    22    62 1   
    52    22    63 1   
    53    23    24 1   
    54    24    64 1   
    55    24    65 1   
    56    24    66 1   
    57    25    26 ar  
    58    25    67 1   
    59    26    27 ar  
    60    26    68 1   
    61    28    29 1   
    62    28    36 1   
    63    29    69 1   
    64    29    70 1   
    65    30    71 1   
    66    33    34 1   
    67    33    36 2   
    68    34    35 2   
    69    36    37 1   
    70    37    40 1   
    71    37    72 1   
    72    37    73 1   
    73    38    40 1   
    74    38    74 1   
    75    38    75 1   
    76    38    76 1   
    77    39    40 1   
    78    39    77 1   
    79    39    78 1   
    80    39    79 1   
    81    40    41 1   
    82    41    42 1   
    83    41    43 1   
@<TRIPOS>SUBSTRUCTURE
     1 3CS         1 TEMP              0 ****  ****    0 ROOT
