@<TRIPOS>MOLECULE
3CS
   79    83     1     0     0
SMALL
abcg2


@<TRIPOS>ATOM
      1 C1          -8.4620    -1.2250    -0.5400 ca         1 3CS      -0.084000
      2 C2          -9.8110    -1.3550    -0.9410 ca         1 3CS      -0.090000
      3 C3         -10.5300    -2.4640    -0.5890 ca         1 3CS      -0.113000
      4 C7          -7.6650    -0.1080    -0.8640 ca         1 3CS      -0.073000
      5 C8          -6.3680    -0.0520    -0.4410 ca         1 3CS      -0.130000
      6 C9          -5.8570    -1.1310     0.3170 ca         1 3CS       0.372300
      7 C10         -4.4480    -1.1430     0.8470 c3         1 3CS       0.113300
      8 C11         -2.4210     0.0800     0.5900 ca         1 3CS       0.113100
      9 C12         -1.7760     1.1230    -0.0610 ca         1 3CS      -0.126000
     10 C13         -1.7500    -0.7140     1.5300 ca         1 3CS      -0.195000
     11 C14         -0.4190    -0.4670     1.8210 ca         1 3CS      -0.075000
     12 C15          0.2160     0.5770     1.1690 ca         1 3CS      -0.094200
     13 C16         -0.4360     1.3910     0.2250 ca         1 3CS      -0.011800
     14 C19          2.8560    -1.0440     1.5060 ca         1 3CS      -0.083300
     15 C20          3.1190    -2.1130     2.3540 ca         1 3CS      -0.097000
     16 C21          3.4950    -3.3510     1.8520 ca         1 3CS      -0.082000
     17 C22          3.3410    -2.4650    -0.3870 ca         1 3CS      -0.082000
     18 C24          3.6020    -3.5160     0.4790 ca         1 3CS       0.199000
     19 N26         -6.5700    -2.1810     0.6340 nb         1 3CS      -0.681000
     20 C30         -1.0150     3.7830    -1.6080 c3         1 3CS      -0.168400
     21 C31         -0.7730     4.9950    -3.8280 c3         1 3CS      -0.085100
     22 C32         -2.7480     5.3490    -2.3660 c3         1 3CS      -0.085100
     23 C33         -1.2350     5.0980    -2.3730 c3         1 3CS      -0.029000
     24 C34         -0.5490     6.2720    -1.6720 c3         1 3CS      -0.085100
     25 C4          -9.9290    -3.4870     0.1760 ca         1 3CS      -0.108000
     26 C5          -8.6240    -3.3870     0.5750 ca         1 3CS      -0.082000
     27 C6          -7.8570    -2.2510     0.2270 ca         1 3CS       0.276000
     28 N17          1.5190     1.0080     1.2820 na         1 3CS      -0.084700
     29 C18          2.4870     0.2990     2.0860 c3         1 3CS       0.107900
     30 C23          2.9710    -1.2330     0.1330 ca         1 3CS      -0.097000
     31 I25          4.1590    -5.3890    -0.3020 i          1 3CS      -0.338000
     32 O27         -3.7190    -0.1040     0.2460 os         1 3CS      -0.362100
     33 C28          0.5550     2.3270    -0.2530 cc         1 3CS      -0.290400
     34 C29          0.3980     3.3370    -1.3040 c          1 3CS       0.623300
     35 O35          1.3550     3.7850    -1.9130 o          1 3CS      -0.540100
     36 C36          1.7370     2.0530     0.4350 cd         1 3CS       0.095700
     37 C37          3.0580     2.7460     0.3870 c3         1 3CS      -0.036200
     38 C38          2.2550     5.0690     1.0120 c3         1 3CS      -0.066600
     39 C39          2.9740     3.5340     2.8180 c3         1 3CS      -0.066600
     40 C40          3.2260     3.9400     1.3630 c3         1 3CS      -0.174000
     41 C41          4.6840     4.4860     1.2630 c          1 3CS       0.724000
     42 O42          5.4970     3.8730     0.5440 o          1 3CS      -0.724500
     43 O43          4.9260     5.5090     1.9350 o          1 3CS      -0.724500
     44 H2         -10.2650    -0.5660    -1.5280 ha         1 3CS       0.113000
     45 H3         -11.5620    -2.5640    -0.8960 ha         1 3CS       0.110000
     46 H7          -8.0890     0.7020    -1.4460 ha         1 3CS       0.118000
     47 H8          -5.7490     0.7990    -0.6820 ha         1 3CS       0.146000
     48 H101        -4.4800    -1.0250     1.9380 h1         1 3CS       0.054700
     49 H102        -4.0000    -2.1210     0.6400 h1         1 3CS       0.054700
     50 H12         -2.3400     1.7010    -0.7790 ha         1 3CS       0.123000
     51 H13         -2.2490    -1.5270     2.0380 ha         1 3CS       0.109000
     52 H14          0.0950    -1.0890     2.5420 ha         1 3CS       0.113000
     53 H20          3.0280    -1.9870     3.4270 ha         1 3CS       0.126000
     54 H21          3.6910    -4.1670     2.5340 ha         1 3CS       0.124000
     55 H22          3.4220    -2.5880    -1.4590 ha         1 3CS       0.124000
     56 H301        -1.5630     3.8310    -0.6620 hc         1 3CS       0.055200
     57 H302        -1.4880     2.9720    -2.1760 hc         1 3CS       0.055200
     58 H311        -1.2700     4.1650    -4.3360 hc         1 3CS       0.032922
     59 H312        -1.0250     5.9090    -4.3720 hc         1 3CS       0.032922
     60 H313         0.3010     4.8420    -3.9100 hc         1 3CS       0.032922
     61 H321        -3.1260     5.4640    -1.3470 hc         1 3CS       0.032922
     62 H322        -2.9930     6.2610    -2.9150 hc         1 3CS       0.032922
     63 H323        -3.2940     4.5240    -2.8300 hc         1 3CS       0.032922
     64 H341         0.5360     6.1990    -1.7130 hc         1 3CS       0.032922
     65 H342        -0.8390     7.2140    -2.1410 hc         1 3CS       0.032922
     66 H343        -0.8410     6.3280    -0.6200 hc         1 3CS       0.032922
     67 H4         -10.5110    -4.3580     0.4500 ha         1 3CS       0.111000
     68 H5          -8.1550    -4.1680     1.1600 ha         1 3CS       0.129000
     69 H181         2.0900     0.1790     3.0960 h1         1 3CS       0.084200
     70 H182         3.3790     0.9140     2.1870 h1         1 3CS       0.084200
     71 H23          2.7680    -0.4200    -0.5540 ha         1 3CS       0.126000
     72 H371         3.8540     2.0220     0.5750 hc         1 3CS       0.082200
     73 H372         3.2210     3.1020    -0.6260 hc         1 3CS       0.082200
     74 H381         1.2170     4.7370     1.0850 hc         1 3CS       0.020200
     75 H382         2.3830     5.9030     1.7000 hc         1 3CS       0.020200
     76 H383         2.4120     5.4400    -0.0020 hc         1 3CS       0.020200
     77 H391         3.6650     2.7630     3.1640 hc         1 3CS       0.020200
     78 H392         3.1030     4.3970     3.4700 hc         1 3CS       0.020200
     79 H393         1.9560     3.1660     2.9650 hc         1 3CS       0.020200
@<TRIPOS>BOND
     1     1     2 ar  
     2     1     4 ar  
     3     1    27 ar  
     4     2     3 ar  
     5     2    44 1   
     6     3    25 ar  
     7     3    45 1   
     8     4     5 ar  
     9     4    46 1   
    10     5     6 ar  
    11     5    47 1   
    12     6     7 1   
    13     6    19 ar  
    14     7    32 1   
    15     7    48 1   
    16     7    49 1   
    17     8     9 ar  
    18     8    10 ar  
    19     8    32 1   
    20     9    13 ar  
    21     9    50 1   
    22    10    11 ar  
    23    10    51 1   
    24    11    12 ar  
    25    11    52 1   
    26    12    13 ar  
    27    12    28 1   
    28    13    33 1   
    29    14    15 ar  
    30    14    29 1   
    31    14    30 ar  
    32    15    16 ar  
    33    15    53 1   
    34    16    18 ar  
    35    16    54 1   
    36    17    18 ar  
    37    17    30 ar  
    38    17    55 1   
    39    18    31 1   
    40    19    27 ar  
    41    20    23 1   
    42    20    34 1   
    43    20    56 1   
    44    20    57 1   
    45    21    23 1   
    46    21    58 1   
    47    21    59 1   
    48    21    60 1   
    49    22    23 1   
    50    22    61 1   
    51    22    62 1   
    52    22    63 1   
    53    23    24 1   
    54    24    64 1   
    55    24    65 1   
    56    24    66 1   
    57    25    26 ar  
    58    25    67 1   
    59    26    27 ar  
    60    26    68 1   
    61    28    29 1   
    62    28    36 1   
    63    29    69 1   
    64    29    70 1   
    65    30    71 1   
    66    33    34 1   
    67    33    36 2   
    68    34    35 2   
    69    36    37 1   
    70    37    40 1   
    71    37    72 1   
    72    37    73 1   
    73    38    40 1   
    74    38    74 1   
    75    38    75 1   
    76    38    76 1   
    77    39    40 1   
    78    39    77 1   
    79    39    78 1   
    80    39    79 1   
    81    40    41 1   
    82    41    42 1   
    83    41    43 1   
@<TRIPOS>SUBSTRUCTURE
     1 3CS         1 TEMP              0 ****  ****    0 ROOT
