@<TRIPOS>MOLECULE
3CT
   23    23     1     0     0
SMALL
bcc


@<TRIPOS>ATOM
      1 N           31.6490     5.7900   -32.1020 n8         1 3CT      -0.891800
      2 CA          30.2000     5.7100   -32.0150 c3         1 3CT       0.015500
      3 CB          29.6210     5.3070   -33.3810 c3         1 3CT      -0.006100
      4 CG          30.0990     3.9650   -33.8600 ca         1 3CT      -0.070300
      5 CD2         29.5240     2.7890   -33.3890 ca         1 3CT      -0.052000
      6 CE2         29.9880     1.5560   -33.8150 ca         1 3CT      -0.062600
      7 CL          29.2570     0.1030   -33.1980 cl         1 3CT      -0.147400
      8 CZ          31.0360     1.4430   -34.7290 ca         1 3CT       0.122100
      9 OH          31.5150     0.2730   -35.1810 oh         1 3CT      -0.509100
     10 CE1         31.6100     2.6200   -35.2000 ca         1 3CT      -0.177000
     11 CD1         31.1510     3.8530   -34.7670 ca         1 3CT      -0.095000
     12 C           29.6310     4.7990   -30.8940 c          1 3CT       0.900600
     13 O           30.4400     4.1230   -30.2300 o          1 3CT      -0.837300
     14 OXT         28.3880     4.8250   -30.7590 o          1 3CT      -0.837300
     15 H           32.0060     6.1470   -31.2240 hn         1 3CT       0.329800
     16 H2          32.0180     4.8470   -32.1560 hn         1 3CT       0.329800
     17 HA          29.8310     6.7230   -31.8180 h1         1 3CT       0.040700
     18 HB2         29.9010     6.0660   -34.1150 hc         1 3CT       0.040200
     19 HB3         28.5330     5.3160   -33.3160 hc         1 3CT       0.040200
     20 HD2         28.7010     2.8330   -32.6870 ha         1 3CT       0.180000
     21 HH          31.0250    -0.4710   -34.8100 ho         1 3CT       0.427000
     22 HE1         32.4240     2.5570   -35.9120 ha         1 3CT       0.130000
     23 HD1         31.6180     4.7510   -35.1530 ha         1 3CT       0.132000
@<TRIPOS>BOND
     1     1     2 1   
     2     1    15 1   
     3     1    16 1   
     4     2     3 1   
     5     2    12 1   
     6     2    17 1   
     7     3     4 1   
     8     3    18 1   
     9     3    19 1   
    10     4     5 ar  
    11     4    11 ar  
    12     5     6 ar  
    13     5    20 1   
    14     6     7 1   
    15     6     8 ar  
    16     8     9 1   
    17     8    10 ar  
    18     9    21 1   
    19    10    11 ar  
    20    10    22 1   
    21    11    23 1   
    22    12    13 1   
    23    12    14 1   
@<TRIPOS>SUBSTRUCTURE
     1 3CT         1 TEMP              0 ****  ****    0 ROOT
