@<TRIPOS>MOLECULE
3CU
   29    30     1     0     0
SMALL
No Charge or Current Charge


@<TRIPOS>ATOM
      1 O7           2.9130     1.4670     0.1590 oh         1 3CU      -0.639000
      2 C7           1.8730     0.4970     0.3380 c5         1 3CU       0.165300
      3 C7A          0.6470     0.6750    -0.6150 c5         1 3CU       0.183500
      4 C1          -0.3480     1.7200     0.0190 c5         1 3CU       0.126300
      5 O1          -0.4320     2.9630    -0.6940 oh         1 3CU      -0.637000
      6 C2          -1.6950     0.9290    -0.0230 c5         1 3CU       0.122300
      7 O2          -2.6920     1.5120     0.8360 oh         1 3CU      -0.658000
      8 C3          -1.1720    -0.4700     0.4310 c5         1 3CU       0.196500
      9 C8          -2.2450    -1.6070     0.4650 c3         1 3CU       0.175600
     10 O8          -2.9650    -1.7260    -0.7770 oh         1 3CU      -0.647000
     11 N4          -0.0580    -0.6480    -0.5600 n3         1 3CU      -0.731600
     12 C5           0.9280    -1.6550    -0.0400 c5         1 3CU       0.144800
     13 C6           2.3060    -0.9220    -0.1340 c5         1 3CU       0.114300
     14 OXT          3.3260    -1.4880     0.7050 oh         1 3CU      -0.657000
     15 H7           3.7250     1.0540     0.5300 ho         1 3CU       0.455000
     16 HA           1.5630     0.4640     1.3920 h1         1 3CU       0.041700
     17 H7A          0.9520     0.9410    -1.6370 h1         1 3CU       0.105700
     18 H6           2.6460    -0.8900    -1.1790 h1         1 3CU       0.060700
     19 H1          -0.0810     1.9210     1.0670 h1         1 3CU       0.040700
     20 HB          -1.2300     3.4200    -0.3450 ho         1 3CU       0.443000
     21 H2          -2.0690     0.8720    -1.0560 h1         1 3CU       0.077700
     22 HC          -3.5380     1.0460     0.6480 ho         1 3CU       0.449000
     23 H3          -0.7740    -0.3860     1.4540 h1         1 3CU       0.043700
     24 H8C1        -1.7440    -2.5550     0.7040 h1         1 3CU       0.023700
     25 H8C2        -2.9470    -1.3970     1.2830 h1         1 3CU       0.023700
     26 H8          -3.5020    -2.5460    -0.7180 ho         1 3CU       0.438000
     27 H5C1         0.7230    -1.9470     1.0010 h1         1 3CU       0.044700
     28 H5C2         0.9180    -2.5720    -0.6450 h1         1 3CU       0.044700
     29 HOT          3.5420    -2.3760     0.3400 ho         1 3CU       0.451000
@<TRIPOS>BOND
     1     1     2 1   
     2     1    15 1   
     3     2     3 1   
     4     2    13 1   
     5     2    16 1   
     6     3     4 1   
     7     3    11 1   
     8     3    17 1   
     9     4     5 1   
    10     4     6 1   
    11     4    19 1   
    12     5    20 1   
    13     6     7 1   
    14     6     8 1   
    15     6    21 1   
    16     7    22 1   
    17     8     9 1   
    18     8    11 1   
    19     8    23 1   
    20     9    10 1   
    21     9    24 1   
    22     9    25 1   
    23    10    26 1   
    24    11    12 1   
    25    12    13 1   
    26    12    27 1   
    27    12    28 1   
    28    13    14 1   
    29    13    18 1   
    30    14    29 1   
@<TRIPOS>SUBSTRUCTURE
     1 3CU         1 TEMP              0 ****  ****    0 ROOT
