@<TRIPOS>MOLECULE
3CU
   29    30     1     0     0
SMALL
bcc


@<TRIPOS>ATOM
      1 O7           2.7870     1.3900    -0.6950 oh         1 3CU      -0.576800
      2 C7           1.9570     0.5370     0.0460 c5         1 3CU       0.142100
      3 C7A          0.5250     0.5830    -0.4710 c5         1 3CU       0.183500
      4 C1          -0.4400     1.5670     0.1790 c5         1 3CU       0.103100
      5 O1          -0.4460     2.7900    -0.5090 oh         1 3CU      -0.574800
      6 C2          -1.7560     0.7880     0.1470 c5         1 3CU       0.099100
      7 O2          -2.7340     1.2370     1.0500 oh         1 3CU      -0.595800
      8 C3          -1.2970    -0.6200     0.5140 c5         1 3CU       0.196500
      9 C8          -2.2830    -1.7230     0.1840 c3         1 3CU       0.152400
     10 O8          -2.5900    -1.7000    -1.1890 oh         1 3CU      -0.584800
     11 N4          -0.0330    -0.7460    -0.1850 n3         1 3CU      -0.731600
     12 C5           0.9830    -1.5820     0.4240 c5         1 3CU       0.144800
     13 C6           2.2870    -0.9480    -0.0560 c5         1 3CU       0.091100
     14 OXT          3.4200    -1.2570     0.7110 oh         1 3CU      -0.594800
     15 H7           3.6720     1.3510    -0.3200 ho         1 3CU       0.416000
     16 HA           1.9680     0.8050     1.1150 h1         1 3CU       0.041700
     17 H7A          0.5470     0.7700    -1.5550 h1         1 3CU       0.105700
     18 H6           2.4430    -1.1990    -1.1150 h1         1 3CU       0.060700
     19 H1          -0.1610     1.7090     1.2350 h1         1 3CU       0.040700
     20 HB          -0.9930     3.4130    -0.0210 ho         1 3CU       0.404000
     21 H2          -2.1360     0.7930    -0.8830 h1         1 3CU       0.077700
     22 HC          -3.2330     1.9470     0.6390 ho         1 3CU       0.410000
     23 H3          -1.1510    -0.6600     1.6090 h1         1 3CU       0.043700
     24 H8C1        -1.8460    -2.6870     0.4830 h1         1 3CU       0.023700
     25 H8C2        -3.1750    -1.5800     0.8070 h1         1 3CU       0.023700
     26 H8          -3.2810    -2.3480    -1.3490 ho         1 3CU       0.399000
     27 H5C1         0.9470    -1.5500     1.5250 h1         1 3CU       0.044700
     28 H5C2         0.8900    -2.6300     0.1270 h1         1 3CU       0.044700
     29 HOT          3.7000    -2.1530     0.5010 ho         1 3CU       0.412000
@<TRIPOS>BOND
     1     1     2 1   
     2     1    15 1   
     3     2     3 1   
     4     2    13 1   
     5     2    16 1   
     6     3     4 1   
     7     3    11 1   
     8     3    17 1   
     9     4     5 1   
    10     4     6 1   
    11     4    19 1   
    12     5    20 1   
    13     6     7 1   
    14     6     8 1   
    15     6    21 1   
    16     7    22 1   
    17     8     9 1   
    18     8    11 1   
    19     8    23 1   
    20     9    10 1   
    21     9    24 1   
    22     9    25 1   
    23    10    26 1   
    24    11    12 1   
    25    12    13 1   
    26    12    27 1   
    27    12    28 1   
    28    13    14 1   
    29    13    18 1   
    30    14    29 1   
@<TRIPOS>SUBSTRUCTURE
     1 3CU         1 TEMP              0 ****  ****    0 ROOT
