@<TRIPOS>MOLECULE
3CW
   47    49     1     0     0
SMALL
No Charge or Current Charge


@<TRIPOS>ATOM
      1 C14        -10.1090   -22.2360    34.8140 ca         1 3CW       0.130000
      2 C11        -10.9260   -24.4370    33.2550 ca         1 3CW      -0.106000
      3 C10        -11.8380   -23.4150    33.5620 ca         1 3CW      -0.069000
      4 C12         -9.6040   -24.3610    33.7220 ca         1 3CW      -0.092000
      5 C13         -9.1950   -23.2670    34.5030 ca         1 3CW       0.112000
      6 C01        -12.4310   -21.2150    34.6390 cp         1 3CW       0.302500
      7 C03        -14.3930   -20.6100    35.7130 ca         1 3CW       0.266300
      8 C04        -14.2600   -19.2690    35.2040 ca         1 3CW       0.566900
      9 C06        -12.3330   -19.8810    34.1010 ca         1 3CW       0.381300
     10 C08        -11.2280   -19.4420    33.1500 c3         1 3CW      -0.144400
     11 C09        -11.4450   -22.2940    34.3340 cp         1 3CW      -0.108500
     12 C17        -15.2360   -17.6580    36.8760 c6         1 3CW       0.206800
     13 C18        -14.5670   -16.2650    36.9670 c6         1 3CW      -0.120400
     14 C19        -15.1350   -15.2720    35.9180 c6         1 3CW       0.176200
     15 C20        -14.9940   -15.9030    34.5080 c6         1 3CW      -0.120400
     16 C21        -15.6530   -17.3030    34.4260 c6         1 3CW       0.206800
     17 C22        -16.6110   -14.8770    36.2320 c3         1 3CW      -0.082100
     18 C24        -15.5800   -21.0450    36.5900 c3         1 3CW       0.129300
     19 N02        -13.4740   -21.5800    35.4270 nb         1 3CW      -0.591000
     20 N05        -13.2390   -18.9110    34.3900 nb         1 3CW      -0.726000
     21 N07        -15.1440   -18.2060    35.4960 nh         1 3CW      -0.756300
     22 O25        -16.4480   -21.9820    35.9180 oh         1 3CW      -0.637000
     23 Cl15        -9.5880   -20.8920    35.8390 cl         1 3CW      -0.175000
     24 Cl16        -7.5300   -23.2180    35.0870 cl         1 3CW      -0.176000
     25 H1         -11.2430   -25.2880    32.6550 ha         1 3CW       0.124000
     26 H2         -12.8600   -23.4840    33.1940 ha         1 3CW       0.136000
     27 H3          -8.8970   -25.1530    33.4860 ha         1 3CW       0.131000
     28 H4         -11.6070   -18.7410    32.3970 hc         1 3CW       0.057367
     29 H5         -10.4210   -18.9400    33.6950 hc         1 3CW       0.057367
     30 H6         -10.7950   -20.2920    32.6110 hc         1 3CW       0.057367
     31 H7         -16.2890   -17.5920    37.1840 h1         1 3CW       0.057700
     32 H8         -14.7430   -18.3330    37.5920 h1         1 3CW       0.057700
     33 H9         -13.4850   -16.3890    36.8180 hc         1 3CW       0.054700
     34 H10        -14.6960   -15.8660    37.9820 hc         1 3CW       0.054700
     35 H11        -13.9310   -16.0030    34.2470 hc         1 3CW       0.054700
     36 H12        -15.4380   -15.2470    33.7470 hc         1 3CW       0.054700
     37 H13        -16.7450   -17.2060    34.5110 h1         1 3CW       0.057700
     38 H14        -15.4630   -17.7330    33.4310 h1         1 3CW       0.057700
     39 H15        -16.6970   -14.4150    37.2230 hc         1 3CW       0.038367
     40 H16        -16.9950   -14.1570    35.4990 hc         1 3CW       0.038367
     41 H17        -17.2850   -15.7400    36.2190 hc         1 3CW       0.038367
     42 H18        -15.1810   -21.4990    37.5070 h1         1 3CW       0.030700
     43 H19        -16.1610   -20.1700    36.9010 h1         1 3CW       0.030700
     44 H23        -17.1460   -22.2420    36.5600 ho         1 3CW       0.441000
     45 N23        -14.3370   -14.0370    35.9620 n8         1 3CW      -0.988200
     46 H20        -13.5780   -14.1650    36.6370 hn         1 3CW       0.392500
     47 H21        -13.8480   -13.9370    35.0670 hn         1 3CW       0.392500
@<TRIPOS>BOND
     1     1     5 ar  
     2     1    11 ar  
     3     1    23 1   
     4     2     3 ar  
     5     2     4 ar  
     6     2    25 1   
     7     3    11 ar  
     8     3    26 1   
     9     4     5 ar  
    10     4    27 1   
    11     5    24 1   
    12     6     9 ar  
    13     6    11 1   
    14     6    19 ar  
    15     7     8 ar  
    16     7    18 1   
    17     7    19 ar  
    18     8    20 ar  
    19     8    21 1   
    20     9    10 1   
    21     9    20 ar  
    22    10    28 1   
    23    10    29 1   
    24    10    30 1   
    25    12    13 1   
    26    12    21 1   
    27    12    31 1   
    28    12    32 1   
    29    13    14 1   
    30    13    33 1   
    31    13    34 1   
    32    14    15 1   
    33    14    17 1   
    34    14    45 1   
    35    15    16 1   
    36    15    35 1   
    37    15    36 1   
    38    16    21 1   
    39    16    37 1   
    40    16    38 1   
    41    17    39 1   
    42    17    40 1   
    43    17    41 1   
    44    18    22 1   
    45    18    42 1   
    46    18    43 1   
    47    22    44 1   
    48    45    46 1   
    49    45    47 1   
@<TRIPOS>SUBSTRUCTURE
     1 3CW         1 TEMP              0 ****  ****    0 ROOT
