@<TRIPOS>MOLECULE
3CW
   47    49     1     0     0
SMALL
bcc


@<TRIPOS>ATOM
      1 C14        -10.1550   -21.7290    34.6420 ca         1 3CW       0.038400
      2 C11        -10.8280   -24.3050    33.8740 ca         1 3CW      -0.124000
      3 C10        -11.8080   -23.3350    33.9950 ca         1 3CW      -0.087000
      4 C12         -9.5040   -23.9930    34.1360 ca         1 3CW      -0.110000
      5 C13         -9.1700   -22.7060    34.5240 ca         1 3CW       0.020400
      6 C01        -12.5720   -21.0340    34.5050 cp         1 3CW       0.302500
      7 C03        -14.5310   -20.5120    35.5780 ca         1 3CW       0.266300
      8 C04        -14.5230   -19.2440    34.9410 ca         1 3CW       0.566900
      9 C06        -12.6730   -19.8810    33.7300 ca         1 3CW       0.381300
     10 C08        -11.7630   -19.5620    32.5870 c3         1 3CW      -0.144400
     11 C09        -11.4880   -22.0320    34.3650 cp         1 3CW      -0.108500
     12 C17        -15.6500   -17.8770    36.6200 c6         1 3CW       0.206800
     13 C18        -14.6910   -16.7500    36.9960 c6         1 3CW      -0.120400
     14 C19        -14.7890   -15.5230    36.0730 c6         1 3CW       0.176200
     15 C20        -14.6880   -16.0020    34.6210 c6         1 3CW      -0.120400
     16 C21        -15.6280   -17.1640    34.3190 c6         1 3CW       0.206800
     17 C22        -16.0990   -14.7740    36.3110 c3         1 3CW      -0.082100
     18 C24        -15.6750   -21.0010    36.4280 c3         1 3CW       0.106100
     19 N02        -13.5360   -21.3430    35.3700 nb         1 3CW      -0.591000
     20 N05        -13.6380   -19.0050    33.9880 nb         1 3CW      -0.726000
     21 N07        -15.4660   -18.2860    35.2310 nh         1 3CW      -0.756300
     22 O25        -15.8600   -22.3720    36.1900 oh         1 3CW      -0.574800
     23 CL15        -9.7250   -20.1470    35.1740 cl         1 3CW      -0.083400
     24 CL16        -7.5240   -22.3330    34.8750 cl         1 3CW      -0.084400
     25 H1         -11.0910   -25.3110    33.5760 ha         1 3CW       0.142000
     26 H2         -12.8420   -23.5810    33.7910 ha         1 3CW       0.154000
     27 H3          -8.7310   -24.7440    34.0440 ha         1 3CW       0.149000
     28 H4         -12.3480   -19.2030    31.7410 hc         1 3CW       0.057367
     29 H5         -11.0620   -18.7710    32.8550 hc         1 3CW       0.057367
     30 H6         -11.1850   -20.4250    32.2630 hc         1 3CW       0.057367
     31 H7         -16.6900   -17.5670    36.7520 h1         1 3CW       0.057700
     32 H8         -15.4940   -18.7180    37.2910 h1         1 3CW       0.057700
     33 H9         -13.6670   -17.1390    36.9560 hc         1 3CW       0.054700
     34 H10        -14.8740   -16.4520    38.0330 hc         1 3CW       0.054700
     35 H11        -13.6620   -16.3210    34.4190 hc         1 3CW       0.054700
     36 H12        -14.9040   -15.1730    33.9410 hc         1 3CW       0.054700
     37 H13        -16.6690   -16.8380    34.4000 h1         1 3CW       0.057700
     38 H14        -15.4890   -17.5090    33.2960 h1         1 3CW       0.057700
     39 H15        -16.1540   -14.4150    37.3420 hc         1 3CW       0.038367
     40 H16        -16.1650   -13.9090    35.6500 hc         1 3CW       0.038367
     41 H17        -16.9780   -15.3930    36.1370 hc         1 3CW       0.038367
     42 H18        -15.4590   -20.8070    37.4890 h1         1 3CW       0.030700
     43 H19        -16.5720   -20.4190    36.1810 h1         1 3CW       0.030700
     44 H23        -16.5370   -22.6840    36.7970 ho         1 3CW       0.402000
     45 N23        -13.7020   -14.5720    36.3030 n8         1 3CW      -0.877800
     46 H20        -13.7310   -14.2580    37.2680 hn         1 3CW       0.337300
     47 H21        -12.8130   -15.0500    36.2020 hn         1 3CW       0.337300
@<TRIPOS>BOND
     1     1     5 ar  
     2     1    11 ar  
     3     1    23 1   
     4     2     3 ar  
     5     2     4 ar  
     6     2    25 1   
     7     3    11 ar  
     8     3    26 1   
     9     4     5 ar  
    10     4    27 1   
    11     5    24 1   
    12     6     9 ar  
    13     6    11 1   
    14     6    19 ar  
    15     7     8 ar  
    16     7    18 1   
    17     7    19 ar  
    18     8    20 ar  
    19     8    21 1   
    20     9    10 1   
    21     9    20 ar  
    22    10    28 1   
    23    10    29 1   
    24    10    30 1   
    25    12    13 1   
    26    12    21 1   
    27    12    31 1   
    28    12    32 1   
    29    13    14 1   
    30    13    33 1   
    31    13    34 1   
    32    14    15 1   
    33    14    17 1   
    34    14    45 1   
    35    15    16 1   
    36    15    35 1   
    37    15    36 1   
    38    16    21 1   
    39    16    37 1   
    40    16    38 1   
    41    17    39 1   
    42    17    40 1   
    43    17    41 1   
    44    18    22 1   
    45    18    42 1   
    46    18    43 1   
    47    22    44 1   
    48    45    46 1   
    49    45    47 1   
@<TRIPOS>SUBSTRUCTURE
     1 3CW         1 TEMP              0 ****  ****    0 ROOT
