@<TRIPOS>MOLECULE
3CX
   33    33     1     0     0
SMALL
abcg2


@<TRIPOS>ATOM
      1 OAA          3.6550    -0.6140     1.4350 o          1 3CX      -0.692200
      2 OAB          3.8520     1.2590    -0.1530 o          1 3CX      -0.692200
      3 OAC          1.1000     1.6650    -0.3390 oh         1 3CX      -0.686000
      4 OAD          4.6210    -0.9930    -0.8020 o          1 3CX      -0.692200
      5 CAE         -5.6630    -0.5110     0.2390 c6         1 3CX      -0.074400
      6 CAF         -5.2540     0.8950    -0.1840 c6         1 3CX      -0.070900
      7 CAG         -4.6670    -1.5450    -0.2730 c6         1 3CX      -0.070900
      8 CAH         -3.8310     1.2240     0.2570 c6         1 3CX      -0.091900
      9 CAI         -3.2450    -1.2130     0.1720 c6         1 3CX      -0.091900
     10 CAJ         -0.4160    -0.1750    -0.4500 c3         1 3CX       0.162800
     11 CAK          2.0380    -0.5600    -0.6310 c3         1 3CX      -0.407400
     12 NAL         -1.4830     0.5800     0.1730 n7         1 3CX      -0.845400
     13 CAM          0.9520     0.3080     0.0040 c3         1 3CX       0.222300
     14 CAN         -2.8220     0.1980    -0.2520 c6         1 3CX       0.173500
     15 SAO          3.6820    -0.2090     0.0180 s6         1 3CX       1.318600
     16 HOAC         2.0440     1.8720    -0.2530 ho         1 3CX       0.489000
     17 HAF         -5.3190     0.9740    -1.2760 hc         1 3CX       0.032200
     18 HAFA        -5.9510     1.6330     0.2200 hc         1 3CX       0.032200
     19 HAG         -4.9430    -2.5440     0.0720 hc         1 3CX       0.032200
     20 HAGA        -4.7080    -1.5750    -1.3680 hc         1 3CX       0.032200
     21 HAH         -3.5430     2.2180    -0.0930 hc         1 3CX       0.042950
     22 HAHA        -3.7850     1.2520     1.3530 hc         1 3CX       0.042950
     23 HAI         -3.1840    -1.2770     1.2660 hc         1 3CX       0.042950
     24 HAIA        -2.5480    -1.9560    -0.2240 hc         1 3CX       0.042950
     25 HAJ         -0.4680    -1.2560    -0.2560 h1         1 3CX       0.025700
     26 HAJA        -0.4970    -0.0550    -1.5360 h1         1 3CX       0.025700
     27 HAK          1.8460    -1.6190    -0.4470 h1         1 3CX       0.074700
     28 HAKA         2.0680    -0.4040    -1.7130 h1         1 3CX       0.074700
     29 HNAL        -1.4190     0.4790     1.1820 hn         1 3CX       0.403000
     30 HAM          1.0120     0.1720     1.0970 h1         1 3CX       0.030700
     31 HAN         -2.8290     0.2390    -1.3500 h1         1 3CX       0.052700
     32 HAE         -5.7080    -0.5640     1.3330 hc         1 3CX       0.030700
     33 HAEA        -6.6680    -0.7400    -0.1240 hc         1 3CX       0.030700
@<TRIPOS>BOND
     1     1    15 1   
     2     2    15 1   
     3     3    13 1   
     4     3    16 1   
     5     4    15 1   
     6     5     6 1   
     7     5     7 1   
     8     5    32 1   
     9     5    33 1   
    10     6     8 1   
    11     6    17 1   
    12     6    18 1   
    13     7     9 1   
    14     7    19 1   
    15     7    20 1   
    16     8    14 1   
    17     8    21 1   
    18     8    22 1   
    19     9    14 1   
    20     9    23 1   
    21     9    24 1   
    22    10    12 1   
    23    10    13 1   
    24    10    25 1   
    25    10    26 1   
    26    11    13 1   
    27    11    15 1   
    28    11    27 1   
    29    11    28 1   
    30    12    14 1   
    31    12    29 1   
    32    13    30 1   
    33    14    31 1   
@<TRIPOS>SUBSTRUCTURE
     1 3CX         1 TEMP              0 ****  ****    0 ROOT
