@<TRIPOS>MOLECULE
3CX
   33    33     1     0     0
SMALL
No Charge or Current Charge


@<TRIPOS>ATOM
      1 OAA          3.5580    -0.6770     1.5100 o          1 3CX      -0.692200
      2 OAB          3.8940     1.2570     0.0010 o          1 3CX      -0.692200
      3 OAC          1.2570     1.6840    -0.4390 oh         1 3CX      -0.686000
      4 OAD          4.6970    -0.9900    -0.6630 o          1 3CX      -0.692200
      5 CAE         -5.7340    -0.5120     0.3050 c6         1 3CX      -0.074400
      6 CAF         -5.3350     0.9130    -0.1520 c6         1 3CX      -0.070900
      7 CAG         -4.7440    -1.5690    -0.2410 c6         1 3CX      -0.070900
      8 CAH         -3.8770     1.2430     0.2550 c6         1 3CX      -0.091900
      9 CAI         -3.2850    -1.2360     0.1630 c6         1 3CX      -0.091900
     10 CAJ         -0.3760    -0.1690    -0.5430 c3         1 3CX       0.162800
     11 CAK          2.1680    -0.5150    -0.6540 c3         1 3CX      -0.407400
     12 NAL         -1.5050     0.5360     0.1210 n7         1 3CX      -0.845400
     13 CAM          1.0290     0.3230    -0.0580 c3         1 3CX       0.222300
     14 CAN         -2.8790     0.1920    -0.3000 c6         1 3CX       0.173500
     15 SAO          3.7500    -0.2000     0.1350 s6         1 3CX       1.318600
     16 HOAC         2.2340     1.8080    -0.3250 ho         1 3CX       0.489000
     17 HAF         -5.4420     0.9950    -1.2430 hc         1 3CX       0.032200
     18 HAFA        -6.0210     1.6500     0.2860 hc         1 3CX       0.032200
     19 HAG         -5.0170    -2.5640     0.1360 hc         1 3CX       0.032200
     20 HAGA        -4.8220    -1.6180    -1.3360 hc         1 3CX       0.032200
     21 HAH         -3.6120     2.2420    -0.1160 hc         1 3CX       0.042950
     22 HAHA        -3.8050     1.2870     1.3510 hc         1 3CX       0.042950
     23 HAI         -3.1770    -1.3230     1.2530 hc         1 3CX       0.042950
     24 HAIA        -2.6150    -1.9860    -0.2790 hc         1 3CX       0.042950
     25 HAJ         -0.4420    -1.2460    -0.3400 h1         1 3CX       0.025700
     26 HAJA        -0.4390    -0.0420    -1.6320 h1         1 3CX       0.025700
     27 HAK          1.9720    -1.5830    -0.5150 h1         1 3CX       0.074700
     28 HAKA         2.2920    -0.3070    -1.7210 h1         1 3CX       0.074700
     29 HNAL        -1.4260     0.4060     1.1350 hn         1 3CX       0.403000
     30 HAM          1.0570     0.2270     1.0370 h1         1 3CX       0.030700
     31 HAN         -2.9280     0.2300    -1.4000 h1         1 3CX       0.052700
     32 HAE         -5.7560    -0.5560     1.4020 hc         1 3CX       0.030700
     33 HAEA        -6.7520    -0.7420    -0.0380 hc         1 3CX       0.030700
@<TRIPOS>BOND
     1     1    15 1   
     2     2    15 1   
     3     3    13 1   
     4     3    16 1   
     5     4    15 1   
     6     5     6 1   
     7     5     7 1   
     8     5    32 1   
     9     5    33 1   
    10     6     8 1   
    11     6    17 1   
    12     6    18 1   
    13     7     9 1   
    14     7    19 1   
    15     7    20 1   
    16     8    14 1   
    17     8    21 1   
    18     8    22 1   
    19     9    14 1   
    20     9    23 1   
    21     9    24 1   
    22    10    12 1   
    23    10    13 1   
    24    10    25 1   
    25    10    26 1   
    26    11    13 1   
    27    11    15 1   
    28    11    27 1   
    29    11    28 1   
    30    12    14 1   
    31    12    29 1   
    32    13    30 1   
    33    14    31 1   
@<TRIPOS>SUBSTRUCTURE
     1 3CX         1 TEMP              0 ****  ****    0 ROOT
