@<TRIPOS>MOLECULE
3CY
   77    80     1     0     0
SMALL
No Charge or Current Charge


@<TRIPOS>ATOM
      1 C1          73.8520   -18.3230    92.7290 ca         1 3CY      -0.094500
      2 C2          74.9380   -18.5730    91.8720 ca         1 3CY      -0.115500
      3 C3          75.3590   -17.5870    90.9640 ca         1 3CY      -0.119000
      4 C4          74.6920   -16.3510    90.9120 ca         1 3CY      -0.115500
      5 C5          73.6020   -16.1020    91.7660 ca         1 3CY      -0.094500
      6 C6          73.1750   -17.0880    92.6770 ca         1 3CY      -0.056300
      7 C7          71.9970   -16.8250    93.6040 c3         1 3CY       0.085900
      8 S1          72.5990   -16.3340    95.2800 ss         1 3CY      -0.377000
      9 C8          71.0090   -16.3910    96.2400 c3         1 3CY      -0.068400
     10 C9          71.2590   -16.4520    97.7570 c          1 3CY       0.570100
     11 C10         71.5290   -17.8740    98.3380 c3         1 3CY       0.029700
     12 O1          71.2810   -15.4350    98.4430 o          1 3CY      -0.466100
     13 N1          72.9830   -18.1530    98.2970 ns         1 3CY      -0.505900
     14 C11         70.9850   -18.0930    99.7760 c3         1 3CY      -0.214400
     15 C12         69.4520   -18.1520    99.7330 c          1 3CY       0.733000
     16 O2          68.8320   -17.1080    99.8570 o          1 3CY      -0.730500
     17 O3          68.9270   -19.2270    99.4880 o          1 3CY      -0.730500
     18 C13         73.5450   -19.3080    97.7830 c          1 3CY       0.591100
     19 O4          72.8800   -20.2210    97.3110 o          1 3CY      -0.584100
     20 C21         76.3180   -20.5940    96.3690 ca         1 3CY      -0.012000
     21 N2          75.7650   -20.5470    97.6580 n          1 3CY      -0.207400
     22 C14         75.0900   -19.2480    97.9430 c5         1 3CY       0.015700
     23 C15         75.7140   -18.3110    96.8070 c5         1 3CY      -0.040100
     24 C16         76.3950   -19.3110    95.8840 ca         1 3CY      -0.129300
     25 C17         77.0140   -19.0550    94.6520 ca         1 3CY      -0.079000
     26 C18         77.5500   -20.1390    93.9270 ca         1 3CY      -0.143000
     27 C19         77.4380   -21.4580    94.4230 ca         1 3CY      -0.085000
     28 C20         76.8180   -21.7010    95.6680 ca         1 3CY      -0.083300
     29 C22         76.5130   -23.1150    96.1420 c3         1 3CY      -0.031100
     30 C23         77.1620   -23.5140    97.4810 c3         1 3CY      -0.075400
     31 C24         77.1860   -22.4290    98.5890 c3         1 3CY       0.035700
     32 C25         75.9250   -21.5120    98.6730 c          1 3CY       0.565000
     33 O5          75.1820   -21.5270    99.6510 o          1 3CY      -0.516000
     34 N3          77.4660   -23.0420    99.9090 ns         1 3CY      -0.491900
     35 C26         78.7020   -23.4870   100.3330 c          1 3CY       0.599100
     36 C27         78.7300   -24.0940   101.7700 c3         1 3CY       0.059700
     37 O6          79.6950   -23.4000    99.6190 o          1 3CY      -0.634100
     38 N4          80.0230   -24.7720   102.0090 ns         1 3CY      -0.454900
     39 C30         80.1780   -26.0220   102.5620 c          1 3CY       0.599100
     40 C31         81.6260   -26.4720   102.7250 c3         1 3CY      -0.173100
     41 O9          79.2310   -26.7280   102.8820 o          1 3CY      -0.646100
     42 C28         78.4450   -23.0220   102.8630 c3         1 3CY      -0.235400
     43 C29         78.3280   -23.6570   104.2530 c          1 3CY       0.718000
     44 O8          79.3280   -23.7120   104.9520 o          1 3CY      -0.730000
     45 O7          77.2320   -24.0690   104.6000 o          1 3CY      -0.730000
     46 H1          73.5370   -19.0890    93.4350 ha         1 3CY       0.117500
     47 H2          75.4550   -19.5290    91.9150 ha         1 3CY       0.104000
     48 H3          76.2020   -17.7790    90.3030 ha         1 3CY       0.100000
     49 H4          75.0190   -15.5850    90.2110 ha         1 3CY       0.104000
     50 H5          73.0920   -15.1420    91.7210 ha         1 3CY       0.117500
     51 H71         71.3900   -17.7350    93.6920 h1         1 3CY       0.063200
     52 H72         71.3620   -16.0270    93.1990 h1         1 3CY       0.063200
     53 H81         70.4330   -17.2770    95.9470 h1         1 3CY       0.075200
     54 H82         70.4110   -15.4980    96.0190 h1         1 3CY       0.075200
     55 H10         71.0190   -18.5830    97.6710 h1         1 3CY       0.127700
     56 HN1         73.6190   -17.4580    98.6730 hn         1 3CY       0.301500
     57 H111        71.3350   -17.2540   100.3890 hc         1 3CY       0.032200
     58 H112        71.3790   -19.0640   100.0990 hc         1 3CY       0.032200
     59 H14         75.3260   -18.8800    98.9500 h1         1 3CY       0.102700
     60 H151        76.4410   -17.6090    97.2310 hc         1 3CY       0.061700
     61 H152        74.9600   -17.7140    96.2840 hc         1 3CY       0.061700
     62 H17         77.0720   -18.0420    94.2590 ha         1 3CY       0.108000
     63 H18         78.0260   -19.9620    92.9660 ha         1 3CY       0.104000
     64 H19         77.8130   -22.2880    93.8280 ha         1 3CY       0.106000
     65 H221        76.8060   -23.8490    95.3800 hc         1 3CY       0.057700
     66 H222        75.4260   -23.2200    96.2430 hc         1 3CY       0.057700
     67 H231        78.1940   -23.8310    97.2880 hc         1 3CY       0.055200
     68 H232        76.6360   -24.4000    97.8570 hc         1 3CY       0.055200
     69 H24         78.0110   -21.7420    98.3540 h1         1 3CY       0.096700
     70 HN3         76.6990   -23.1230   100.5690 hn         1 3CY       0.332500
     71 H27         77.9250   -24.8410   101.7990 h1         1 3CY       0.092700
     72 HN4         80.8720   -24.2890   101.7370 hn         1 3CY       0.328500
     73 H311        82.1660   -25.7270   103.3220 hc         1 3CY       0.047033
     74 H312        81.7130   -27.4750   103.1570 hc         1 3CY       0.047033
     75 H313        82.1340   -26.4040   101.7560 hc         1 3CY       0.047033
     76 H281        77.4840   -22.5690   102.5930 hc         1 3CY       0.044700
     77 H282        79.2860   -22.3180   102.8320 hc         1 3CY       0.044700
@<TRIPOS>BOND
     1     1     2 ar  
     2     1     6 ar  
     3     1    46 1   
     4     2     3 ar  
     5     2    47 1   
     6     3     4 ar  
     7     3    48 1   
     8     4     5 ar  
     9     4    49 1   
    10     5     6 ar  
    11     5    50 1   
    12     6     7 1   
    13     7     8 1   
    14     7    51 1   
    15     7    52 1   
    16     8     9 1   
    17     9    10 1   
    18     9    53 1   
    19     9    54 1   
    20    10    11 1   
    21    10    12 2   
    22    11    13 1   
    23    11    14 1   
    24    11    55 1   
    25    13    18 1   
    26    13    56 1   
    27    14    15 1   
    28    14    57 1   
    29    14    58 1   
    30    15    16 1   
    31    15    17 1   
    32    18    19 2   
    33    18    22 1   
    34    20    21 1   
    35    20    24 ar  
    36    20    28 ar  
    37    21    22 1   
    38    21    32 1   
    39    22    23 1   
    40    22    59 1   
    41    23    24 1   
    42    23    60 1   
    43    23    61 1   
    44    24    25 ar  
    45    25    26 ar  
    46    25    62 1   
    47    26    27 ar  
    48    26    63 1   
    49    27    28 ar  
    50    27    64 1   
    51    28    29 1   
    52    29    30 1   
    53    29    65 1   
    54    29    66 1   
    55    30    31 1   
    56    30    67 1   
    57    30    68 1   
    58    31    32 1   
    59    31    34 1   
    60    31    69 1   
    61    32    33 2   
    62    34    35 1   
    63    34    70 1   
    64    35    36 1   
    65    35    37 2   
    66    36    38 1   
    67    36    42 1   
    68    36    71 1   
    69    38    39 1   
    70    38    72 1   
    71    39    40 1   
    72    39    41 2   
    73    40    73 1   
    74    40    74 1   
    75    40    75 1   
    76    42    43 1   
    77    42    76 1   
    78    42    77 1   
    79    43    44 1   
    80    43    45 1   
@<TRIPOS>SUBSTRUCTURE
     1 3CY         1 TEMP              0 ****  ****    0 ROOT
