@<TRIPOS>MOLECULE
3CY
   77    80     1     0     0
SMALL
bcc


@<TRIPOS>ATOM
      1 C1          74.4600   -15.8120    91.5350 ca         1 3CY      -0.112500
      2 C2          74.3180   -15.3600    90.2310 ca         1 3CY      -0.133500
      3 C3          73.4930   -16.0410    89.3440 ca         1 3CY      -0.137000
      4 C4          72.8120   -17.1740    89.7700 ca         1 3CY      -0.133500
      5 C5          72.9550   -17.6230    91.0760 ca         1 3CY      -0.112500
      6 C6          73.7850   -16.9500    91.9690 ca         1 3CY      -0.056300
      7 C7          73.9150   -17.4140    93.3880 c3         1 3CY       0.038000
      8 S1          72.6520   -16.5520    94.3830 ss         1 3CY      -0.281200
      9 C8          72.9790   -17.3610    95.9650 c3         1 3CY      -0.116300
     10 C9          72.0600   -16.8190    97.0330 c          1 3CY       0.570100
     11 C10         72.0080   -17.6080    98.3370 c3         1 3CY       0.029700
     12 O1          71.3940   -15.8310    96.8480 o          1 3CY      -0.466100
     13 N1          73.3390   -18.0460    98.7030 ns         1 3CY      -0.572900
     14 C11         71.3200   -16.8480    99.4560 c3         1 3CY      -0.214400
     15 C12         69.8140   -16.6270    99.2210 c          1 3CY       0.943600
     16 O2          69.3050   -15.6360    99.7770 o          1 3CY      -0.835800
     17 O3          69.2220   -17.4870    98.5390 o          1 3CY      -0.835800
     18 C13         73.8080   -19.2890    98.4950 c          1 3CY       0.658100
     19 O4          73.1420   -20.2010    98.0410 o          1 3CY      -0.584100
     20 C21         76.1080   -20.8830    97.2060 ca         1 3CY       0.080600
     21 N2          75.6940   -20.8260    98.5420 n          1 3CY      -0.367000
     22 C14         75.2910   -19.4630    98.8350 c5         1 3CY       0.015700
     23 C15         76.1910   -18.6370    97.8810 c5         1 3CY      -0.040100
     24 C16         76.4240   -19.6080    96.7580 ca         1 3CY      -0.129300
     25 C17         76.8230   -19.4250    95.4490 ca         1 3CY      -0.097000
     26 C18         76.8840   -20.5380    94.6120 ca         1 3CY      -0.161000
     27 C19         76.5060   -21.7960    95.0690 ca         1 3CY      -0.103000
     28 C20         76.0780   -21.9950    96.3810 ca         1 3CY      -0.083300
     29 C22         75.4490   -23.2630    96.8810 c3         1 3CY      -0.031100
     30 C23         76.1640   -23.9300    98.0540 c3         1 3CY      -0.075400
     31 C24         76.7550   -22.9540    99.0790 c3         1 3CY       0.035700
     32 C25         75.8500   -21.7860    99.4850 c          1 3CY       0.707500
     33 O5          75.3880   -21.6710   100.6040 o          1 3CY      -0.591500
     34 N3          77.1800   -23.6630   100.2520 ns         1 3CY      -0.558900
     35 C26         78.4430   -23.6660   100.7140 c          1 3CY       0.666100
     36 C27         78.6010   -24.3290   102.0780 c3         1 3CY       0.059700
     37 O6          79.3790   -23.1360   100.1380 o          1 3CY      -0.634100
     38 N4          79.8590   -25.0250   102.1600 ns         1 3CY      -0.521900
     39 C30         80.1420   -26.0650   101.3610 c          1 3CY       0.666100
     40 C31         81.5070   -26.6790   101.5360 c3         1 3CY      -0.173100
     41 O9          79.3330   -26.4940   100.5480 o          1 3CY      -0.646100
     42 C28         78.5350   -23.2560   103.1590 c3         1 3CY      -0.235400
     43 C29         78.4790   -23.8200   104.5970 c          1 3CY       0.928600
     44 O8          79.0230   -23.1280   105.4780 o          1 3CY      -0.835300
     45 O7          77.8650   -24.8920   104.7570 o          1 3CY      -0.835300
     46 H1          75.1070   -15.2800    92.2220 ha         1 3CY       0.135500
     47 H2          74.8520   -14.4770    89.9060 ha         1 3CY       0.122000
     48 H3          73.3830   -15.6910    88.3260 ha         1 3CY       0.118000
     49 H4          72.1660   -17.7090    89.0860 ha         1 3CY       0.122000
     50 H5          72.4230   -18.5090    91.4020 ha         1 3CY       0.135500
     51 H71         74.9040   -17.1810    93.7860 h1         1 3CY       0.063200
     52 H72         73.7610   -18.4910    93.4670 h1         1 3CY       0.063200
     53 H81         74.0150   -17.1790    96.2640 h1         1 3CY       0.075200
     54 H82         72.8560   -18.4440    95.8780 h1         1 3CY       0.075200
     55 H10         71.4190   -18.5030    98.1140 h1         1 3CY       0.127700
     56 HN1         73.9500   -17.3580    99.1170 hn         1 3CY       0.301500
     57 H111        71.8250   -15.8990    99.6530 hc         1 3CY       0.032200
     58 H112        71.4230   -17.4450   100.3690 hc         1 3CY       0.032200
     59 H14         75.4680   -19.2180    99.8820 h1         1 3CY       0.102700
     60 H151        77.1270   -18.3740    98.3800 hc         1 3CY       0.061700
     61 H152        75.7260   -17.7060    97.5590 hc         1 3CY       0.061700
     62 H17         77.0720   -18.4390    95.0750 ha         1 3CY       0.126000
     63 H18         77.1950   -20.4180    93.5820 ha         1 3CY       0.122000
     64 H19         76.5050   -22.6340    94.3830 ha         1 3CY       0.124000
     65 H221        75.3580   -23.9820    96.0660 hc         1 3CY       0.057700
     66 H222        74.4270   -23.0140    97.1870 hc         1 3CY       0.057700
     67 H231        76.9920   -24.5420    97.6920 hc         1 3CY       0.055200
     68 H232        75.4650   -24.6040    98.5540 hc         1 3CY       0.055200
     69 H24         77.6510   -22.5080    98.6380 h1         1 3CY       0.096700
     70 HN3         76.4740   -24.1440   100.7860 hn         1 3CY       0.332500
     71 H27         77.7840   -25.0370   102.2420 h1         1 3CY       0.092700
     72 HN4         80.5730   -24.6590   102.7680 hn         1 3CY       0.328500
     73 H311        82.1220   -26.1700   102.2750 hc         1 3CY       0.047033
     74 H312        81.3980   -27.7210   101.8370 hc         1 3CY       0.047033
     75 H313        82.0340   -26.6710   100.5820 hc         1 3CY       0.047033
     76 H281        77.6290   -22.6610   103.0030 hc         1 3CY       0.044700
     77 H282        79.3760   -22.5660   103.0470 hc         1 3CY       0.044700
@<TRIPOS>BOND
     1     1     2 ar  
     2     1     6 ar  
     3     1    46 1   
     4     2     3 ar  
     5     2    47 1   
     6     3     4 ar  
     7     3    48 1   
     8     4     5 ar  
     9     4    49 1   
    10     5     6 ar  
    11     5    50 1   
    12     6     7 1   
    13     7     8 1   
    14     7    51 1   
    15     7    52 1   
    16     8     9 1   
    17     9    10 1   
    18     9    53 1   
    19     9    54 1   
    20    10    11 1   
    21    10    12 2   
    22    11    13 1   
    23    11    14 1   
    24    11    55 1   
    25    13    18 1   
    26    13    56 1   
    27    14    15 1   
    28    14    57 1   
    29    14    58 1   
    30    15    16 1   
    31    15    17 1   
    32    18    19 2   
    33    18    22 1   
    34    20    21 1   
    35    20    24 ar  
    36    20    28 ar  
    37    21    22 1   
    38    21    32 1   
    39    22    23 1   
    40    22    59 1   
    41    23    24 1   
    42    23    60 1   
    43    23    61 1   
    44    24    25 ar  
    45    25    26 ar  
    46    25    62 1   
    47    26    27 ar  
    48    26    63 1   
    49    27    28 ar  
    50    27    64 1   
    51    28    29 1   
    52    29    30 1   
    53    29    65 1   
    54    29    66 1   
    55    30    31 1   
    56    30    67 1   
    57    30    68 1   
    58    31    32 1   
    59    31    34 1   
    60    31    69 1   
    61    32    33 2   
    62    34    35 1   
    63    34    70 1   
    64    35    36 1   
    65    35    37 2   
    66    36    38 1   
    67    36    42 1   
    68    36    71 1   
    69    38    39 1   
    70    38    72 1   
    71    39    40 1   
    72    39    41 2   
    73    40    73 1   
    74    40    74 1   
    75    40    75 1   
    76    42    43 1   
    77    42    76 1   
    78    42    77 1   
    79    43    44 1   
    80    43    45 1   
@<TRIPOS>SUBSTRUCTURE
     1 3CY         1 TEMP              0 ****  ****    0 ROOT
