@<TRIPOS>MOLECULE
3CZ
   56    58     1     0     0
SMALL
No Charge or Current Charge


@<TRIPOS>ATOM
      1 O3           7.3530    -3.2380     0.5810 o          1 3CZ      -0.414000
      2 N2           6.8890    -2.7040    -0.4360 no         1 3CZ       0.706200
      3 O4           7.4220    -2.7770    -1.5500 o          1 3CZ      -0.414000
      4 C5           5.6160    -1.9290    -0.3100 ca         1 3CZ      -0.253200
      5 C12          4.9680    -1.8140     0.9410 ca         1 3CZ       0.010000
      6 C14          3.7720    -1.0860     1.0520 ca         1 3CZ      -0.218000
      7 C13          5.0440    -1.3040    -1.4400 ca         1 3CZ       0.010000
      8 C15          3.8480    -0.5780    -1.3130 ca         1 3CZ      -0.218000
      9 C6           3.2050    -0.4610    -0.0720 ca         1 3CZ       0.395000
     10 N3           2.0040     0.2730     0.0240 nh         1 3CZ      -0.800400
     11 C4           1.9480     1.7010    -0.4360 c6         1 3CZ       0.213800
     12 C1           0.5080     2.1280    -0.8810 c6         1 3CZ       0.196500
     13 C22          0.1370     1.4180    -2.2220 c3         1 3CZ      -0.125100
     14 C7           0.9740    -0.0420     1.0670 c6         1 3CZ       0.210800
     15 C2          -0.4580     0.4540     0.6840 c6         1 3CZ       0.178800
     16 N1          -0.4700     1.8760     0.2250 n3         1 3CZ      -0.754500
     17 S1          -1.9660     2.7070     0.2150 sy         1 3CZ       1.172600
     18 O1          -2.0360     3.4440     1.4820 o          1 3CZ      -0.535000
     19 O2          -2.0630     3.3970    -1.0770 o          1 3CZ      -0.535000
     20 C3          -3.1810     1.3700     0.2000 ca         1 3CZ      -0.306500
     21 C10         -3.7930     0.9520     1.3960 ca         1 3CZ      -0.016500
     22 C17         -4.7260    -0.0970     1.3800 ca         1 3CZ      -0.130500
     23 C11         -3.5190     0.7320    -1.0070 ca         1 3CZ      -0.016500
     24 C16         -4.4530    -0.3170    -1.0180 ca         1 3CZ      -0.130500
     25 C9          -5.0760    -0.7550     0.1780 ca         1 3CZ      -0.005300
     26 C8          -6.1110    -1.9130     0.2120 c3         1 3CZ      -0.009700
     27 C21         -7.4580    -1.3810     0.7690 c3         1 3CZ      -0.084433
     28 C20         -6.3830    -2.5290    -1.1900 c3         1 3CZ      -0.084433
     29 C19         -5.5830    -3.0450     1.1340 c3         1 3CZ      -0.084433
     30 H12          5.3840    -2.2830     1.8320 ha         1 3CZ       0.146000
     31 H14          3.2980    -1.0010     2.0240 ha         1 3CZ       0.122500
     32 H13          5.5150    -1.3760    -2.4190 ha         1 3CZ       0.146000
     33 H15          3.4120    -0.1130    -2.1910 ha         1 3CZ       0.122500
     34 H4           2.2670     2.3630     0.3820 h1         1 3CZ       0.069700
     35 H4A          2.6420     1.8760    -1.2710 h1         1 3CZ       0.069700
     36 H1           0.5560     3.2080    -1.0920 h1         1 3CZ       0.093700
     37 H22          0.1110     0.3280    -2.1160 hc         1 3CZ       0.050033
     38 H22A        -0.8350     1.7390    -2.6070 hc         1 3CZ       0.050033
     39 H22B         0.8770     1.6490    -2.9970 hc         1 3CZ       0.050033
     40 H7           0.9240    -1.1270     1.2440 h1         1 3CZ       0.069200
     41 H7A          1.2570     0.4300     2.0190 h1         1 3CZ       0.069200
     42 H2          -0.8670    -0.2070    -0.0930 h1         1 3CZ       0.065200
     43 H2A         -1.0930     0.3290     1.5730 h1         1 3CZ       0.065200
     44 H10         -3.5470     1.4320     2.3420 ha         1 3CZ       0.132000
     45 H17         -5.1780    -0.3970     2.3220 ha         1 3CZ       0.120000
     46 H11         -3.0590     1.0420    -1.9430 ha         1 3CZ       0.132000
     47 H16         -4.6770    -0.7770    -1.9750 ha         1 3CZ       0.120000
     48 H21         -7.8310    -0.5530     0.1530 hc         1 3CZ       0.038811
     49 H21A        -8.2210    -2.1690     0.7740 hc         1 3CZ       0.038811
     50 H21B        -7.3560    -1.0160     1.7980 hc         1 3CZ       0.038811
     51 H20         -5.4670    -2.9480    -1.6240 hc         1 3CZ       0.038811
     52 H20A        -7.1170    -3.3410    -1.1240 hc         1 3CZ       0.038811
     53 H20B        -6.7860    -1.7770    -1.8810 hc         1 3CZ       0.038811
     54 H19         -5.4570    -2.7010     2.1670 hc         1 3CZ       0.038811
     55 H19A        -6.2770    -3.8940     1.1520 hc         1 3CZ       0.038811
     56 H19B        -4.6110    -3.4100     0.7800 hc         1 3CZ       0.038811
@<TRIPOS>BOND
     1     1     2 1   
     2     2     3 1   
     3     2     4 1   
     4     4     5 ar  
     5     4     7 ar  
     6     5     6 ar  
     7     5    30 1   
     8     6     9 ar  
     9     6    31 1   
    10     7     8 ar  
    11     7    32 1   
    12     8     9 ar  
    13     8    33 1   
    14     9    10 1   
    15    10    11 1   
    16    10    14 1   
    17    11    12 1   
    18    11    34 1   
    19    11    35 1   
    20    12    13 1   
    21    12    16 1   
    22    12    36 1   
    23    13    37 1   
    24    13    38 1   
    25    13    39 1   
    26    14    15 1   
    27    14    40 1   
    28    14    41 1   
    29    15    16 1   
    30    15    42 1   
    31    15    43 1   
    32    16    17 1   
    33    17    18 2   
    34    17    19 2   
    35    17    20 1   
    36    20    21 ar  
    37    20    23 ar  
    38    21    22 ar  
    39    21    44 1   
    40    22    25 ar  
    41    22    45 1   
    42    23    24 ar  
    43    23    46 1   
    44    24    25 ar  
    45    24    47 1   
    46    25    26 1   
    47    26    27 1   
    48    26    28 1   
    49    26    29 1   
    50    27    48 1   
    51    27    49 1   
    52    27    50 1   
    53    28    51 1   
    54    28    52 1   
    55    28    53 1   
    56    29    54 1   
    57    29    55 1   
    58    29    56 1   
@<TRIPOS>SUBSTRUCTURE
     1 3CZ         1 TEMP              0 ****  ****    0 ROOT
