@<TRIPOS>MOLECULE
3CZ
   56    58     1     0     0
SMALL
abcg2


@<TRIPOS>ATOM
      1 O3           5.2200    -4.2600     0.6510 o          1 3CZ      -0.414000
      2 N2           4.9780    -3.6020    -0.3410 no         1 3CZ       0.706200
      3 O4           5.3000    -3.9490    -1.4600 o          1 3CZ      -0.414000
      4 C5           4.2840    -2.3620    -0.1840 ca         1 3CZ      -0.253200
      5 C12          3.9040    -1.9240     1.0810 ca         1 3CZ       0.010000
      6 C14          3.2310    -0.7360     1.2310 ca         1 3CZ      -0.218000
      7 C13          3.9770    -1.5850    -1.2980 ca         1 3CZ       0.010000
      8 C15          3.3030    -0.3980    -1.1500 ca         1 3CZ      -0.218000
      9 C6           2.9030     0.0780     0.1220 ca         1 3CZ       0.395000
     10 N3           2.2600     1.2670     0.2690 nh         1 3CZ      -0.800400
     11 C4           1.7040     2.0270    -0.8340 c6         1 3CZ       0.213800
     12 C1           0.1930     1.8060    -0.9460 c6         1 3CZ       0.196500
     13 C22         -0.1450     0.3770    -1.3610 c3         1 3CZ      -0.125100
     14 C7           1.6760     1.7160     1.5190 c6         1 3CZ       0.210800
     15 C2           0.1670     1.5180     1.5130 c6         1 3CZ       0.178800
     16 N1          -0.3880     2.2030     0.3470 n3         1 3CZ      -0.754500
     17 S1          -1.9310     2.7760     0.4110 sy         1 3CZ       1.172600
     18 O1          -2.1240     3.3040     1.7520 o          1 3CZ      -0.535000
     19 O2          -2.1060     3.6510    -0.7380 o          1 3CZ      -0.535000
     20 C3          -3.0230     1.3980     0.2120 ca         1 3CZ      -0.306500
     21 C10         -3.1840     0.5000     1.2620 ca         1 3CZ      -0.016500
     22 C17         -3.9720    -0.6200     1.0750 ca         1 3CZ      -0.130500
     23 C11         -3.6680     1.1910    -0.9950 ca         1 3CZ      -0.016500
     24 C16         -4.4650     0.0660    -1.1590 ca         1 3CZ      -0.130500
     25 C9          -4.6250    -0.8680    -0.1380 ca         1 3CZ      -0.005300
     26 C8          -5.4670    -2.1260    -0.2960 c3         1 3CZ      -0.009700
     27 C21         -6.5720    -2.1310     0.7680 c3         1 3CZ      -0.084433
     28 C20         -6.1250    -2.2190    -1.6730 c3         1 3CZ      -0.084433
     29 C19         -4.5640    -3.3530    -0.1070 c3         1 3CZ      -0.084433
     30 H12          4.1270    -2.5090     1.9620 ha         1 3CZ       0.146000
     31 H14          2.9600    -0.4500     2.2360 ha         1 3CZ       0.122500
     32 H13          4.2560    -1.9020    -2.2920 ha         1 3CZ       0.146000
     33 H15          3.0870     0.1580    -2.0490 ha         1 3CZ       0.122500
     34 H4           1.8990     3.0860    -0.6490 h1         1 3CZ       0.069700
     35 H4A          2.1780     1.7820    -1.7790 h1         1 3CZ       0.069700
     36 H1          -0.1680     2.5000    -1.7050 h1         1 3CZ       0.093700
     37 H22          0.2020    -0.3590    -0.6360 hc         1 3CZ       0.050033
     38 H22A        -1.2170     0.2360    -1.4860 hc         1 3CZ       0.050033
     39 H22B         0.3290     0.1490    -2.3150 hc         1 3CZ       0.050033
     40 H7           2.1030     1.2100     2.3780 h1         1 3CZ       0.069200
     41 H7A          1.8980     2.7790     1.6360 h1         1 3CZ       0.069200
     42 H2          -0.0760     0.4500     1.5080 h1         1 3CZ       0.065200
     43 H2A         -0.2440     1.9460     2.4240 h1         1 3CZ       0.065200
     44 H10         -2.7100     0.6620     2.2210 ha         1 3CZ       0.132000
     45 H17         -4.0770    -1.3120     1.9010 ha         1 3CZ       0.120000
     46 H11         -3.5550     1.8880    -1.8140 ha         1 3CZ       0.132000
     47 H16         -4.9580    -0.0690    -2.1110 ha         1 3CZ       0.120000
     48 H21         -7.2200    -1.2590     0.6650 hc         1 3CZ       0.038811
     49 H21A        -7.1920    -3.0230     0.6620 hc         1 3CZ       0.038811
     50 H21B        -6.1680    -2.1310     1.7810 hc         1 3CZ       0.038811
     51 H20         -5.3920    -2.2480    -2.4810 hc         1 3CZ       0.038811
     52 H20A        -6.7120    -3.1370    -1.7320 hc         1 3CZ       0.038811
     53 H20B        -6.8060    -1.3860    -1.8600 hc         1 3CZ       0.038811
     54 H19         -4.0890    -3.3660     0.8750 hc         1 3CZ       0.038811
     55 H19A        -5.1500    -4.2700    -0.1990 hc         1 3CZ       0.038811
     56 H19B        -3.7740    -3.3810    -0.8600 hc         1 3CZ       0.038811
@<TRIPOS>BOND
     1     1     2 1   
     2     2     3 1   
     3     2     4 1   
     4     4     5 ar  
     5     4     7 ar  
     6     5     6 ar  
     7     5    30 1   
     8     6     9 ar  
     9     6    31 1   
    10     7     8 ar  
    11     7    32 1   
    12     8     9 ar  
    13     8    33 1   
    14     9    10 1   
    15    10    11 1   
    16    10    14 1   
    17    11    12 1   
    18    11    34 1   
    19    11    35 1   
    20    12    13 1   
    21    12    16 1   
    22    12    36 1   
    23    13    37 1   
    24    13    38 1   
    25    13    39 1   
    26    14    15 1   
    27    14    40 1   
    28    14    41 1   
    29    15    16 1   
    30    15    42 1   
    31    15    43 1   
    32    16    17 1   
    33    17    18 2   
    34    17    19 2   
    35    17    20 1   
    36    20    21 ar  
    37    20    23 ar  
    38    21    22 ar  
    39    21    44 1   
    40    22    25 ar  
    41    22    45 1   
    42    23    24 ar  
    43    23    46 1   
    44    24    25 ar  
    45    24    47 1   
    46    25    26 1   
    47    26    27 1   
    48    26    28 1   
    49    26    29 1   
    50    27    48 1   
    51    27    49 1   
    52    27    50 1   
    53    28    51 1   
    54    28    52 1   
    55    28    53 1   
    56    29    54 1   
    57    29    55 1   
    58    29    56 1   
@<TRIPOS>SUBSTRUCTURE
     1 3CZ         1 TEMP              0 ****  ****    0 ROOT
