@<TRIPOS>MOLECULE
3D0
   88    89     1     0     0
SMALL
No Charge or Current Charge


@<TRIPOS>ATOM
      1 CBM         -3.8040     1.2510    -1.5160 ca         1 3D0      -0.111000
      2 CBN         -4.0710     2.4960    -0.9210 ca         1 3D0      -0.105500
      3 CBO         -4.9590     2.5810     0.1660 ca         1 3D0      -0.106000
      4 CBP         -5.5740     1.4180     0.6590 ca         1 3D0      -0.105500
      5 CBQ         -5.3070     0.1730     0.0640 ca         1 3D0      -0.111000
      6 CBL         -4.4220     0.0820    -1.0300 ca         1 3D0      -0.089300
      7 CBK         -4.1460    -1.2660    -1.6900 c3         1 3D0      -0.041100
      8 CBG         -2.7290    -1.8280    -1.3980 c3         1 3D0       0.028700
      9 CBH         -2.5300    -3.2540    -1.9910 c          1 3D0       0.590100
     10 OBJ         -2.2740    -4.2410    -1.3180 o          1 3D0      -0.597100
     11 NBI         -2.6680    -3.3780    -3.3310 nt         1 3D0      -0.605000
     12 NBE         -2.4370    -1.8180     0.0550 ns         1 3D0      -0.477900
     13 CBD         -1.6490    -0.8840     0.6950 c          1 3D0       0.583100
     14 OBF         -1.0230    -0.0300     0.0770 o          1 3D0      -0.637100
     15 CAZ         -1.5280    -1.0640     2.2450 c3         1 3D0       0.051500
     16 CBA         -2.5270    -0.1530     3.0110 c3         1 3D0       0.188300
     17 CBB         -2.4700     1.3420     2.6260 c3         1 3D0      -0.133100
     18 OBC         -2.1550    -0.2630     4.3810 oh         1 3D0      -0.657000
     19 NAY         -0.1370    -0.8280     2.7830 n7         1 3D0      -0.864400
     20 CAX          0.8940    -1.7910     2.3250 c3         1 3D0       0.146800
     21 CAG          2.2820    -1.1040     2.2910 c3         1 3D0       0.111700
     22 NAF          2.2370     0.1060     1.4460 ns         1 3D0      -0.517900
     23 C            2.9600     1.2580     1.6760 c          1 3D0       0.585100
     24 O            3.6950     1.3570     2.6510 o          1 3D0      -0.585100
     25 CA           2.7790     2.4010     0.6170 c3         1 3D0       0.049700
     26 N            3.3180     3.6890     1.1180 ns         1 3D0      -0.497900
     27 CAB          2.7740     4.4400     2.1380 c          1 3D0       0.613100
     28 OAQ          1.7690     4.1090     2.7490 o          1 3D0      -0.591100
     29 CAA          3.5280     5.7270     2.4470 c3         1 3D0      -0.180100
     30 CB           1.3380     2.5180     0.0320 c3         1 3D0      -0.089400
     31 CG           1.1480     3.6830    -0.9690 c3         1 3D0      -0.066400
     32 CD          -0.2640     3.7220    -1.5960 c3         1 3D0      -0.081400
     33 CE          -0.4370     4.8880    -2.5910 c3         1 3D0       0.148800
     34 NZ          -1.7830     4.9020    -3.1890 n8         1 3D0      -1.000200
     35 CAH          3.4080    -2.0680     1.8410 c3         1 3D0       0.142600
     36 OAI          3.1560    -2.4660     0.4790 os         1 3D0      -0.461000
     37 CAJ          4.1420    -3.3450    -0.0810 c3         1 3D0       0.213900
     38 CAK          3.7390    -3.6520    -1.5110 ca         1 3D0      -0.137300
     39 CAL          3.8950    -2.6920    -2.5270 ca         1 3D0      -0.049000
     40 CAM          3.5020    -3.0350    -3.8310 ca         1 3D0      -0.170000
     41 CAN          2.9720    -4.3130    -4.0740 ca         1 3D0       0.336900
     42 NAO          2.8170    -5.2420    -3.1020 nb         1 3D0      -0.664000
     43 CAP          3.1950    -4.9070    -1.8450 ca         1 3D0       0.343900
     44 H1          -3.1170     1.1950    -2.3570 ha         1 3D0       0.105500
     45 H2          -3.5910     3.3950    -1.3020 ha         1 3D0       0.127000
     46 H3          -5.1650     3.5440     0.6260 ha         1 3D0       0.118000
     47 H4          -6.2590     1.4820     1.5030 ha         1 3D0       0.127000
     48 H5          -5.7910    -0.7200     0.4520 ha         1 3D0       0.105500
     49 H6          -4.8890    -2.0030    -1.3600 hc         1 3D0       0.060700
     50 H7          -4.2820    -1.1710    -2.7750 hc         1 3D0       0.060700
     51 H8          -1.9990    -1.1850    -1.9080 h1         1 3D0       0.085700
     52 H9          -2.8760    -2.5710    -3.9000 hn         1 3D0       0.316000
     53 H10         -2.5510    -4.2860    -3.7550 hn         1 3D0       0.316000
     54 H11         -2.8570    -2.5390     0.6300 hn         1 3D0       0.330500
     55 H12         -1.8210    -2.1010     2.4580 h1         1 3D0       0.085700
     56 H13         -3.5510    -0.5190     2.8490 h1         1 3D0       0.063700
     57 H14         -2.7500     1.4870     1.5770 hc         1 3D0       0.048700
     58 H15         -3.1700     1.9220     3.2390 hc         1 3D0       0.048700
     59 H16         -1.4650     1.7540     2.7710 hc         1 3D0       0.048700
     60 H17         -1.2050    -0.5340     4.2920 ho         1 3D0       0.467000
     61 H18          0.1580     0.0920     2.4220 hn         1 3D0       0.436000
     62 H20          0.9240    -2.6700     2.9830 h1         1 3D0       0.055200
     63 H21          0.6710    -2.1490     1.3100 h1         1 3D0       0.055200
     64 H22          2.5110    -0.7980     3.3210 h1         1 3D0       0.092700
     65 H23          1.6780     0.0720     0.6020 hn         1 3D0       0.331500
     66 H24          3.4230     2.1070    -0.2220 h1         1 3D0       0.052700
     67 H25          4.1620     4.0550     0.6940 hn         1 3D0       0.312500
     68 H26          3.0700     6.3000     3.2610 hc         1 3D0       0.058367
     69 H27          4.5750     5.4840     2.6620 hc         1 3D0       0.058367
     70 H28          3.6100     6.3210     1.5300 hc         1 3D0       0.058367
     71 H29          1.0890     1.5850    -0.4870 hc         1 3D0       0.068700
     72 H30          0.6150     2.6240     0.8500 hc         1 3D0       0.068700
     73 H31          1.3330     4.6390    -0.4630 hc         1 3D0       0.037200
     74 H32          1.8940     3.5940    -1.7690 hc         1 3D0       0.037200
     75 H33         -0.4570     2.7730    -2.1100 hc         1 3D0       0.049700
     76 H34         -1.0100     3.8140    -0.7970 hc         1 3D0       0.049700
     77 H35         -0.2730     5.8430    -2.0730 h1         1 3D0       0.026700
     78 H36          0.3040     4.8000    -3.3980 h1         1 3D0       0.026700
     79 H37         -1.8330     5.6580    -3.8830 hn         1 3D0       0.390000
     80 H38         -1.9070     4.0520    -3.7510 hn         1 3D0       0.390000
     81 H40          4.3750    -1.5540     1.9210 h1         1 3D0       0.037700
     82 H41          3.4280    -2.9420     2.5060 h1         1 3D0       0.037700
     83 H42          5.1320    -2.8710    -0.0750 h1         1 3D0       0.033200
     84 H43          4.2060    -4.2760     0.4990 h1         1 3D0       0.033200
     85 H44          4.3070    -1.7090    -2.3100 ha         1 3D0       0.126000
     86 H45          3.6050    -2.3250    -4.6460 ha         1 3D0       0.121000
     87 H46          2.6600    -4.6030    -5.0770 h4         1 3D0       0.018100
     88 H47          3.0570    -5.6740    -1.0830 h4         1 3D0       0.017100
@<TRIPOS>BOND
     1     1     2 ar  
     2     1     6 ar  
     3     1    44 1   
     4     2     3 ar  
     5     2    45 1   
     6     3     4 ar  
     7     3    46 1   
     8     4     5 ar  
     9     4    47 1   
    10     5     6 ar  
    11     5    48 1   
    12     6     7 1   
    13     7     8 1   
    14     7    49 1   
    15     7    50 1   
    16     8     9 1   
    17     8    12 1   
    18     8    51 1   
    19     9    10 2   
    20     9    11 1   
    21    11    52 1   
    22    11    53 1   
    23    12    13 1   
    24    12    54 1   
    25    13    14 2   
    26    13    15 1   
    27    15    16 1   
    28    15    19 1   
    29    15    55 1   
    30    16    17 1   
    31    16    18 1   
    32    16    56 1   
    33    17    57 1   
    34    17    58 1   
    35    17    59 1   
    36    18    60 1   
    37    19    20 1   
    38    19    61 1   
    39    20    21 1   
    40    20    62 1   
    41    20    63 1   
    42    21    22 1   
    43    21    35 1   
    44    21    64 1   
    45    22    23 1   
    46    22    65 1   
    47    23    24 2   
    48    23    25 1   
    49    25    26 1   
    50    25    30 1   
    51    25    66 1   
    52    26    27 1   
    53    26    67 1   
    54    27    28 2   
    55    27    29 1   
    56    29    68 1   
    57    29    69 1   
    58    29    70 1   
    59    30    31 1   
    60    30    71 1   
    61    30    72 1   
    62    31    32 1   
    63    31    73 1   
    64    31    74 1   
    65    32    33 1   
    66    32    75 1   
    67    32    76 1   
    68    33    34 1   
    69    33    77 1   
    70    33    78 1   
    71    34    79 1   
    72    34    80 1   
    73    35    36 1   
    74    35    81 1   
    75    35    82 1   
    76    36    37 1   
    77    37    38 1   
    78    37    83 1   
    79    37    84 1   
    80    38    39 ar  
    81    38    43 ar  
    82    39    40 ar  
    83    39    85 1   
    84    40    41 ar  
    85    40    86 1   
    86    41    42 ar  
    87    41    87 1   
    88    42    43 ar  
    89    43    88 1   
@<TRIPOS>SUBSTRUCTURE
     1 3D0         1 TEMP              0 ****  ****    0 ROOT
