@<TRIPOS>MOLECULE
3D0
   88    89     1     0     0
SMALL
bcc


@<TRIPOS>ATOM
      1 CBM         -4.2810     1.5400    -1.3420 ca         1 3D0      -0.129000
      2 CBN         -4.5280     2.7080    -0.6340 ca         1 3D0      -0.123500
      3 CBO         -5.3120     2.6720     0.5130 ca         1 3D0      -0.124000
      4 CBP         -5.8380     1.4630     0.9470 ca         1 3D0      -0.123500
      5 CBQ         -5.5830     0.2970     0.2360 ca         1 3D0      -0.129000
      6 CBL         -4.8080     0.3210    -0.9190 ca         1 3D0      -0.089300
      7 CBK         -4.5240    -0.9440    -1.6810 c3         1 3D0      -0.041100
      8 CBG         -3.0610    -1.3910    -1.5250 c3         1 3D0       0.028700
      9 CBH         -2.8500    -2.7120    -2.2650 c          1 3D0       0.657100
     10 OBJ         -2.9780    -3.7860    -1.6990 o          1 3D0      -0.597100
     11 NBI         -2.5740    -2.5810    -3.5680 nt         1 3D0      -0.672000
     12 NBE         -2.7180    -1.5200    -0.1360 ns         1 3D0      -0.544900
     13 CBD         -1.5780    -1.0450     0.3930 c          1 3D0       0.650100
     14 OBF         -0.6940    -0.5350    -0.2800 o          1 3D0      -0.637100
     15 CAZ         -1.4870    -1.1500     1.9170 c3         1 3D0       0.051500
     16 CBA         -2.5380    -0.2440     2.6010 c3         1 3D0       0.165100
     17 CBB         -2.4130     1.2180     2.1920 c3         1 3D0      -0.133100
     18 OBC         -2.4230    -0.4050     3.9950 oh         1 3D0      -0.594800
     19 NAY         -0.1860    -0.8050     2.4350 n7         1 3D0      -0.809200
     20 CAX          0.8600    -1.7800     2.1700 c3         1 3D0       0.146800
     21 CAG          2.2340    -1.1170     2.2510 c3         1 3D0       0.111700
     22 NAF          2.2790    -0.0200     1.3020 ns         1 3D0      -0.584900
     23 C            2.8920     1.1590     1.5260 c          1 3D0       0.652100
     24 O            3.5640     1.3860     2.5160 o          1 3D0      -0.585100
     25 CA           2.6610     2.1960     0.4180 c3         1 3D0       0.049700
     26 N            3.4790     3.3630     0.6240 ns         1 3D0      -0.564900
     27 CAB          3.3090     4.2760     1.5970 c          1 3D0       0.680100
     28 OAQ          2.3730     4.2630     2.3830 o          1 3D0      -0.591100
     29 CAA          4.3700     5.3490     1.6480 c3         1 3D0      -0.180100
     30 CB           1.1650     2.4890     0.2180 c3         1 3D0      -0.089400
     31 CG           0.8900     3.5260    -0.8610 c3         1 3D0      -0.066400
     32 CD          -0.5980     3.6330    -1.1740 c3         1 3D0      -0.081400
     33 CE          -0.8850     4.6260    -2.2890 c3         1 3D0       0.148800
     34 NZ          -2.3060     4.6720    -2.6060 n8         1 3D0      -0.889800
     35 CAH          3.3660    -2.1030     2.0240 c3         1 3D0       0.119400
     36 OAI          3.2590    -2.6180     0.7210 os         1 3D0      -0.414600
     37 CAJ          4.3220    -3.4570     0.3560 c3         1 3D0       0.190700
     38 CAK          4.2450    -3.7250    -1.1170 ca         1 3D0      -0.202600
     39 CAL          3.9010    -2.7290    -2.0250 ca         1 3D0      -0.067000
     40 CAM          3.8840    -3.0280    -3.3770 ca         1 3D0      -0.253300
     41 CAN          4.2130    -4.3150    -3.7780 ca         1 3D0       0.402200
     42 NAO          4.5370    -5.2780    -2.9250 nb         1 3D0      -0.664000
     43 CAP          4.5450    -4.9820    -1.6300 ca         1 3D0       0.409200
     44 H1          -3.6710     1.5770    -2.2380 ha         1 3D0       0.123500
     45 H2          -4.0960     3.6400    -0.9770 ha         1 3D0       0.145000
     46 H3          -5.5070     3.5810     1.0670 ha         1 3D0       0.136000
     47 H4          -6.4480     1.4250     1.8400 ha         1 3D0       0.145000
     48 H5          -5.9970    -0.6430     0.5820 ha         1 3D0       0.123500
     49 H6          -5.1860    -1.7430    -1.3360 hc         1 3D0       0.060700
     50 H7          -4.7290    -0.8020    -2.7450 hc         1 3D0       0.060700
     51 H8          -2.4120    -0.6250    -1.9540 h1         1 3D0       0.085700
     52 H9          -2.4270    -1.6820    -3.9940 hn         1 3D0       0.316000
     53 H10         -2.4630    -3.3930    -4.1530 hn         1 3D0       0.316000
     54 H11         -3.3690    -2.0000     0.4670 hn         1 3D0       0.330500
     55 H12         -1.7140    -2.1830     2.2060 h1         1 3D0       0.085700
     56 H13         -3.5360    -0.5940     2.3250 h1         1 3D0       0.063700
     57 H14         -2.5880     1.3620     1.1250 hc         1 3D0       0.048700
     58 H15         -3.1580     1.8140     2.7190 hc         1 3D0       0.048700
     59 H16         -1.4300     1.6290     2.4380 hc         1 3D0       0.048700
     60 H17         -1.4720    -0.3790     4.1770 ho         1 3D0       0.428000
     61 H18          0.0920     0.0840     2.0340 hn         1 3D0       0.380800
     62 H20          0.8160    -2.5780     2.9160 h1         1 3D0       0.055200
     63 H21          0.7500    -2.2590     1.1900 h1         1 3D0       0.055200
     64 H22          2.3640    -0.7000     3.2530 h1         1 3D0       0.092700
     65 H23          1.8130    -0.1630     0.4190 hn         1 3D0       0.331500
     66 H24          3.0220     1.7520    -0.5140 h1         1 3D0       0.052700
     67 H25          4.3000     3.4380     0.0490 hn         1 3D0       0.312500
     68 H26          3.8970     6.3300     1.6760 hc         1 3D0       0.058367
     69 H27          4.9460     5.2400     2.5670 hc         1 3D0       0.058367
     70 H28          5.0610     5.3220     0.8080 hc         1 3D0       0.058367
     71 H29          0.6760     1.5600    -0.0780 hc         1 3D0       0.068700
     72 H30          0.7040     2.7910     1.1590 hc         1 3D0       0.068700
     73 H31          1.2710     4.5050    -0.5570 hc         1 3D0       0.037200
     74 H32          1.4330     3.2530    -1.7730 hc         1 3D0       0.037200
     75 H33         -0.9810     2.6450    -1.4550 hc         1 3D0       0.049700
     76 H34         -1.1490     3.9260    -0.2760 hc         1 3D0       0.049700
     77 H35         -0.5750     5.6250    -1.9680 h1         1 3D0       0.026700
     78 H36         -0.2570     4.3750    -3.1570 h1         1 3D0       0.026700
     79 H37         -2.4720     5.3670    -3.3230 hn         1 3D0       0.334800
     80 H38         -2.5820     3.7890    -3.0180 hn         1 3D0       0.334800
     81 H40          4.3270    -1.5890     2.1620 h1         1 3D0       0.037700
     82 H41          3.3140    -2.9020     2.7770 h1         1 3D0       0.037700
     83 H42          5.2860    -2.9830     0.5900 h1         1 3D0       0.033200
     84 H43          4.2970    -4.4020     0.9150 h1         1 3D0       0.033200
     85 H44          3.6480    -1.7340    -1.6820 ha         1 3D0       0.144000
     86 H45          3.6230    -2.2790    -4.1120 ha         1 3D0       0.139000
     87 H46          4.2100    -4.5780    -4.8300 h4         1 3D0       0.018100
     88 H47          4.8030    -5.7910    -0.9530 h4         1 3D0       0.017100
@<TRIPOS>BOND
     1     1     2 ar  
     2     1     6 ar  
     3     1    44 1   
     4     2     3 ar  
     5     2    45 1   
     6     3     4 ar  
     7     3    46 1   
     8     4     5 ar  
     9     4    47 1   
    10     5     6 ar  
    11     5    48 1   
    12     6     7 1   
    13     7     8 1   
    14     7    49 1   
    15     7    50 1   
    16     8     9 1   
    17     8    12 1   
    18     8    51 1   
    19     9    10 2   
    20     9    11 1   
    21    11    52 1   
    22    11    53 1   
    23    12    13 1   
    24    12    54 1   
    25    13    14 2   
    26    13    15 1   
    27    15    16 1   
    28    15    19 1   
    29    15    55 1   
    30    16    17 1   
    31    16    18 1   
    32    16    56 1   
    33    17    57 1   
    34    17    58 1   
    35    17    59 1   
    36    18    60 1   
    37    19    20 1   
    38    19    61 1   
    39    20    21 1   
    40    20    62 1   
    41    20    63 1   
    42    21    22 1   
    43    21    35 1   
    44    21    64 1   
    45    22    23 1   
    46    22    65 1   
    47    23    24 2   
    48    23    25 1   
    49    25    26 1   
    50    25    30 1   
    51    25    66 1   
    52    26    27 1   
    53    26    67 1   
    54    27    28 2   
    55    27    29 1   
    56    29    68 1   
    57    29    69 1   
    58    29    70 1   
    59    30    31 1   
    60    30    71 1   
    61    30    72 1   
    62    31    32 1   
    63    31    73 1   
    64    31    74 1   
    65    32    33 1   
    66    32    75 1   
    67    32    76 1   
    68    33    34 1   
    69    33    77 1   
    70    33    78 1   
    71    34    79 1   
    72    34    80 1   
    73    35    36 1   
    74    35    81 1   
    75    35    82 1   
    76    36    37 1   
    77    37    38 1   
    78    37    83 1   
    79    37    84 1   
    80    38    39 ar  
    81    38    43 ar  
    82    39    40 ar  
    83    39    85 1   
    84    40    41 ar  
    85    40    86 1   
    86    41    42 ar  
    87    41    87 1   
    88    42    43 ar  
    89    43    88 1   
@<TRIPOS>SUBSTRUCTURE
     1 3D0         1 TEMP              0 ****  ****    0 ROOT
