@<TRIPOS>MOLECULE
3D1
   31    33     1     0     0
SMALL
No Charge or Current Charge


@<TRIPOS>ATOM
      1 O5           4.7400     1.6400     1.1190 oh         1 3D1      -0.704000
      2 C5           4.1400     1.0990    -0.0730 c3         1 3D1       0.165600
      3 C4           3.1770    -0.0760     0.2550 c5         1 3D1       0.157300
      4 O4           1.9760     0.4070     0.9040 os         1 3D1      -0.436000
      5 C1           0.9270    -0.5740     0.7240 c5         1 3D1       0.324300
      6 N9          -0.2780     0.1100     0.2700 na         1 3D1      -0.303300
      7 C9          -1.5800    -0.3020     0.3830 ca         1 3D1       0.121500
      8 N3          -2.1050    -1.4130     0.9370 nb         1 3D1      -0.227000
      9 C2          -3.4530    -1.5240     0.8760 ca         1 3D1       0.182900
     10 N1          -4.3140    -0.6390     0.3200 nb         1 3D1      -0.304000
     11 C6          -3.7600     0.4570    -0.2200 ca         1 3D1       0.451900
     12 N6          -4.6220     1.3460    -0.7830 nv         1 3D1      -1.064900
     13 C7          -2.3630     0.6580    -0.2070 ca         1 3D1      -0.098600
     14 N7          -1.6150     1.7120    -0.7210 nc         1 3D1      -0.559100
     15 C8          -0.3590     1.3400    -0.4090 cd         1 3D1       0.413700
     16 C10          1.4940    -1.6220    -0.2790 c5         1 3D1      -0.163400
     17 C3           2.6120    -0.8230    -0.9830 c5         1 3D1       0.135300
     18 O3           3.5620    -1.6830    -1.6160 oh         1 3D1      -0.703000
     19 H5           5.2950     2.4060     0.8400 ho         1 3D1       0.507000
     20 H5'1         3.5800     1.8760    -0.6110 h1         1 3D1       0.027200
     21 H5'2         4.9230     0.7280    -0.7490 h1         1 3D1       0.027200
     22 H4           3.6900    -0.7780     0.9270 h1         1 3D1       0.087700
     23 H1           0.6740    -1.0480     1.6820 h2         1 3D1       0.111700
     24 H2          -3.8900    -2.4180     1.3190 h5         1 3D1       0.045100
     25 HN61        -5.5530     1.0170    -1.0260 hn         1 3D1       0.507000
     26 HN62        -4.2190     2.0610    -1.3840 hn         1 3D1       0.507000
     27 H8           0.5350     1.9050    -0.6480 h5         1 3D1       0.069800
     28 H2'1         1.8910    -2.4900     0.2590 hc         1 3D1       0.082700
     29 H2'2         0.7330    -1.9930    -0.9750 hc         1 3D1       0.082700
     30 H3           2.1930    -0.1070    -1.7060 h1         1 3D1       0.043700
     31 H6           3.1010    -2.1200    -2.3710 ho         1 3D1       0.515000
@<TRIPOS>BOND
     1     1     2 1   
     2     1    19 1   
     3     2     3 1   
     4     2    20 1   
     5     2    21 1   
     6     3     4 1   
     7     3    17 1   
     8     3    22 1   
     9     4     5 1   
    10     5     6 1   
    11     5    16 1   
    12     5    23 1   
    13     6     7 1   
    14     6    15 1   
    15     7     8 ar  
    16     7    13 ar  
    17     8     9 ar  
    18     9    10 ar  
    19     9    24 1   
    20    10    11 ar  
    21    11    12 1   
    22    11    13 ar  
    23    12    25 1   
    24    12    26 1   
    25    13    14 1   
    26    14    15 2   
    27    15    27 1   
    28    16    17 1   
    29    16    28 1   
    30    16    29 1   
    31    17    18 1   
    32    17    30 1   
    33    18    31 1   
@<TRIPOS>SUBSTRUCTURE
     1 3D1         1 TEMP              0 ****  ****    0 ROOT
