@<TRIPOS>MOLECULE
3D1
   31    33     1     0     0
SMALL
bcc


@<TRIPOS>ATOM
      1 O5           4.3330     1.8000     0.9370 oh         1 3D1      -0.581800
      2 C5           3.7810     1.1580    -0.1860 c3         1 3D1       0.142400
      3 C4           3.1220    -0.1260     0.2500 c5         1 3D1       0.134100
      4 O4           2.0100     0.1460     1.1030 os         1 3D1      -0.389600
      5 C1           0.9440    -0.7160     0.8300 c5         1 3D1       0.271800
      6 N9          -0.1820     0.0730     0.3340 na         1 3D1      -0.274000
      7 C9          -1.4880    -0.3150     0.3810 ca         1 3D1       0.449800
      8 N3          -1.9950    -1.4310     0.9020 nb         1 3D1      -0.753000
      9 C2          -3.3090    -1.4750     0.7720 ca         1 3D1       0.708900
     10 N1          -4.1150    -0.5800     0.2060 nb         1 3D1      -0.830000
     11 C6          -3.5910     0.5350    -0.3150 ca         1 3D1       0.780200
     12 N6          -4.3980     1.4350    -0.8780 nv         1 3D1      -0.954500
     13 C7          -2.1950     0.7040    -0.2380 ca         1 3D1      -0.229200
     14 N7          -1.3490     1.6950    -0.6580 nc         1 3D1      -0.559100
     15 C8          -0.1660     1.2820    -0.3030 cd         1 3D1       0.413700
     16 C10          1.4480    -1.7240    -0.1950 c5         1 3D1      -0.163400
     17 C3           2.5470    -0.9400    -0.9050 c5         1 3D1       0.112100
     18 O3           3.5560    -1.7110    -1.4930 oh         1 3D1      -0.580800
     19 H5           4.7460     2.6170     0.6430 ho         1 3D1       0.408000
     20 H5'1         3.0440     1.7890    -0.7010 h1         1 3D1       0.027200
     21 H5'2         4.5480     0.8990    -0.9280 h1         1 3D1       0.027200
     22 H4           3.8500    -0.7460     0.7920 h1         1 3D1       0.087700
     23 H1           0.5960    -1.1980     1.7460 h2         1 3D1       0.111700
     24 H2          -3.8010    -2.3540     1.1750 h5         1 3D1       0.045100
     25 HN61        -5.3850     1.2570    -0.9470 hn         1 3D1       0.451800
     26 HN62        -4.0310     2.2620    -1.3140 hn         1 3D1       0.451800
     27 H8           0.7490     1.8280    -0.4730 h5         1 3D1       0.069800
     28 H2'1         1.8890    -2.5780     0.3250 hc         1 3D1       0.082700
     29 H2'2         0.6610    -2.0930    -0.8510 hc         1 3D1       0.082700
     30 H3           2.0950    -0.2600    -1.6420 h1         1 3D1       0.043700
     31 H6           3.2180    -2.0820    -2.3140 ho         1 3D1       0.416000
@<TRIPOS>BOND
     1     1     2 1   
     2     1    19 1   
     3     2     3 1   
     4     2    20 1   
     5     2    21 1   
     6     3     4 1   
     7     3    17 1   
     8     3    22 1   
     9     4     5 1   
    10     5     6 1   
    11     5    16 1   
    12     5    23 1   
    13     6     7 1   
    14     6    15 1   
    15     7     8 ar  
    16     7    13 ar  
    17     8     9 ar  
    18     9    10 ar  
    19     9    24 1   
    20    10    11 ar  
    21    11    12 1   
    22    11    13 ar  
    23    12    25 1   
    24    12    26 1   
    25    13    14 1   
    26    14    15 2   
    27    15    27 1   
    28    16    17 1   
    29    16    28 1   
    30    16    29 1   
    31    17    18 1   
    32    17    30 1   
    33    18    31 1   
@<TRIPOS>SUBSTRUCTURE
     1 3D1         1 TEMP              0 ****  ****    0 ROOT
