@<TRIPOS>MOLECULE
3D2
   47    48     1     0     0
SMALL
No Charge or Current Charge


@<TRIPOS>ATOM
      1 C19          6.5920     0.5470     1.2940 ca         1 3D2       0.334900
      2 C14          2.7950    -2.2360    -0.8660 ca         1 3D2      -0.095000
      3 C15          2.9600    -0.8870    -0.4600 cp         1 3D2      -0.038000
      4 C16          4.2360    -0.4180     0.1700 cp         1 3D2      -0.082000
      5 C17          5.0190    -1.2710     0.9870 ca         1 3D2      -0.066000
      6 C18          6.2070    -0.7780     1.5510 ca         1 3D2      -0.164000
      7 C13          1.5990    -2.6740    -1.4570 ca         1 3D2      -0.117000
      8 C12          0.5410    -1.7740    -1.6570 ca         1 3D2      -0.080000
      9 C11          0.6740    -0.4290    -1.2670 ca         1 3D2      -0.088300
     10 C22          1.8770     0.0040    -0.6730 ca         1 3D2      -0.090000
     11 C10         -0.4730     0.5470    -1.4820 c3         1 3D2       0.208100
     12 N20          5.8650     1.3840     0.5200 nb         1 3D2      -0.666000
     13 C21          4.7190     0.9050    -0.0220 ca         1 3D2       0.343900
     14 N09         -1.4530     0.4340    -0.3880 n7         1 3D2      -0.858400
     15 C03         -2.6200     1.3710    -0.4570 c3         1 3D2       0.102500
     16 C02         -2.2550     2.8760    -0.1830 c          1 3D2       0.561100
     17 O23         -1.2380     3.2390     0.3910 o          1 3D2      -0.608100
     18 N01         -3.1380     3.8030    -0.6270 nt         1 3D2      -0.604000
     19 C04         -3.7390     0.8920     0.5080 c3         1 3D2      -0.066400
     20 C05         -4.3430    -0.4870     0.1440 c3         1 3D2      -0.071400
     21 C06         -5.4880    -0.9150     1.0890 c3         1 3D2      -0.079400
     22 C07         -6.0840    -2.2900     0.7240 c3         1 3D2       0.150800
     23 N08         -7.1730    -2.6710     1.6420 n8         1 3D2      -0.995200
     24 H1           7.5080     0.9530     1.7210 h4         1 3D2       0.019100
     25 H3           4.7070    -2.2920     1.1910 ha         1 3D2       0.121000
     26 H4           6.8240    -1.4090     2.1840 ha         1 3D2       0.123000
     27 H5           1.4930    -3.7130    -1.7630 ha         1 3D2       0.114000
     28 H6          -0.3850    -2.1200    -2.1120 ha         1 3D2       0.124000
     29 H7           1.9630     1.0420    -0.3610 ha         1 3D2       0.117000
     30 H8          -0.0700     1.5680    -1.5400 h1         1 3D2       0.040200
     31 H9          -0.9510     0.3310    -2.4480 h1         1 3D2       0.040200
     32 H10          4.1700     1.6070    -0.6490 h4         1 3D2       0.020100
     33 H11         -0.9550     0.6170     0.4930 hn         1 3D2       0.438000
     34 H13         -3.0440     1.3440    -1.4710 h1         1 3D2       0.059700
     35 H14         -3.9790     3.5170    -1.1060 hn         1 3D2       0.313500
     36 H15         -2.9430     4.7820    -0.4750 hn         1 3D2       0.313500
     37 H16         -3.3450     0.8610     1.5320 hc         1 3D2       0.049200
     38 H17         -4.5480     1.6320     0.5080 hc         1 3D2       0.049200
     39 H18         -4.7190    -0.4550    -0.8860 hc         1 3D2       0.045200
     40 H19         -3.5560    -1.2520     0.1720 hc         1 3D2       0.045200
     41 H20         -5.1110    -0.9470     2.1190 hc         1 3D2       0.045700
     42 H21         -6.2810    -0.1570     1.0590 hc         1 3D2       0.045700
     43 H22         -6.4800    -2.2630    -0.3000 h1         1 3D2       0.025700
     44 H23         -5.2990    -3.0580     0.7730 h1         1 3D2       0.025700
     45 H24         -7.9450    -2.0010     1.5380 hn         1 3D2       0.391000
     46 H25         -7.5810    -3.5590     1.3260 hn         1 3D2       0.391000
     47 H2           3.6060    -2.9480    -0.7340 ha         1 3D2       0.113000
@<TRIPOS>BOND
     1     1     6 ar  
     2     1    12 ar  
     3     1    24 1   
     4     2     3 ar  
     5     2     7 ar  
     6     2    47 1   
     7     3     4 1   
     8     3    10 ar  
     9     4     5 ar  
    10     4    13 ar  
    11     5     6 ar  
    12     5    25 1   
    13     6    26 1   
    14     7     8 ar  
    15     7    27 1   
    16     8     9 ar  
    17     8    28 1   
    18     9    10 ar  
    19     9    11 1   
    20    10    29 1   
    21    11    14 1   
    22    11    30 1   
    23    11    31 1   
    24    12    13 ar  
    25    13    32 1   
    26    14    15 1   
    27    14    33 1   
    28    15    16 1   
    29    15    19 1   
    30    15    34 1   
    31    16    17 2   
    32    16    18 1   
    33    18    35 1   
    34    18    36 1   
    35    19    20 1   
    36    19    37 1   
    37    19    38 1   
    38    20    21 1   
    39    20    39 1   
    40    20    40 1   
    41    21    22 1   
    42    21    41 1   
    43    21    42 1   
    44    22    23 1   
    45    22    43 1   
    46    22    44 1   
    47    23    45 1   
    48    23    46 1   
@<TRIPOS>SUBSTRUCTURE
     1 3D2         1 TEMP              0 ****  ****    0 ROOT
