@<TRIPOS>MOLECULE
3D2
   47    48     1     0     0
SMALL
abcg2


@<TRIPOS>ATOM
      1 C19          6.8540     0.4110     0.6150 ca         1 3D2       0.334900
      2 C14          2.6300    -2.1910    -0.5130 ca         1 3D2      -0.095000
      3 C15          2.9560    -0.8470    -0.3430 cp         1 3D2      -0.038000
      4 C16          4.3270    -0.4430     0.0150 cp         1 3D2      -0.082000
      5 C17          5.1070    -1.1830     0.9020 ca         1 3D2      -0.066000
      6 C18          6.3870    -0.7530     1.2060 ca         1 3D2      -0.164000
      7 C13          1.3310    -2.5610    -0.8370 ca         1 3D2      -0.117000
      8 C12          0.3460    -1.5980    -0.9950 ca         1 3D2      -0.080000
      9 C11          0.6520    -0.2480    -0.8360 ca         1 3D2      -0.088300
     10 C22          1.9520     0.1110    -0.5060 ca         1 3D2      -0.090000
     11 C10         -0.4180     0.7980    -0.9990 c3         1 3D2       0.208100
     12 N20          6.1300     1.1290    -0.2360 nb         1 3D2      -0.666000
     13 C21          4.9060     0.7070    -0.5240 ca         1 3D2       0.343900
     14 N09         -1.5520     0.5030    -0.1440 n7         1 3D2      -0.858400
     15 C03         -2.6860     1.3750    -0.3320 c3         1 3D2       0.102500
     16 C02         -2.4050     2.8210     0.0880 c          1 3D2       0.561100
     17 O23         -1.7180     3.0730     1.0700 o          1 3D2      -0.608100
     18 N01         -2.9900     3.7640    -0.6620 nt         1 3D2      -0.604000
     19 C04         -3.8890     0.8680     0.4720 c3         1 3D2      -0.066400
     20 C05         -4.3730    -0.5070     0.0330 c3         1 3D2      -0.071400
     21 C06         -5.5540    -0.9960     0.8610 c3         1 3D2      -0.079400
     22 C07         -6.0460    -2.3700     0.4350 c3         1 3D2       0.150800
     23 N08         -7.1700    -2.8000     1.2550 n8         1 3D2      -0.995200
     24 H1           7.8490     0.7780     0.8370 h4         1 3D2       0.019100
     25 H3           4.7120    -2.0790     1.3660 ha         1 3D2       0.121000
     26 H4           7.0100    -1.3030     1.8970 ha         1 3D2       0.123000
     27 H5           1.0910    -3.6070    -0.9710 ha         1 3D2       0.114000
     28 H6          -0.6670    -1.8920    -1.2380 ha         1 3D2       0.124000
     29 H7           2.1800     1.1590    -0.3460 ha         1 3D2       0.117000
     30 H8           0.0210     1.7910    -0.8280 h1         1 3D2       0.040200
     31 H9          -0.7730     0.7940    -2.0340 h1         1 3D2       0.040200
     32 H10          4.3500     1.3060    -1.2390 h4         1 3D2       0.020100
     33 H11         -1.2600     0.5340     0.8270 hn         1 3D2       0.438000
     34 H13         -2.9490     1.3540    -1.3960 h1         1 3D2       0.059700
     35 H14         -3.5410     3.5310    -1.4700 hn         1 3D2       0.313500
     36 H15         -2.9210     4.7380    -0.4150 hn         1 3D2       0.313500
     37 H16         -3.6210     0.8450     1.5340 hc         1 3D2       0.049200
     38 H17         -4.7070     1.5880     0.3790 hc         1 3D2       0.049200
     39 H18         -4.6580    -0.4680    -1.0240 hc         1 3D2       0.045200
     40 H19         -3.5500    -1.2220     0.1010 hc         1 3D2       0.045200
     41 H20         -5.2750    -1.0310     1.9190 hc         1 3D2       0.045700
     42 H21         -6.3770    -0.2760     0.7840 hc         1 3D2       0.045700
     43 H22         -6.2730    -2.3490    -0.6420 h1         1 3D2       0.025700
     44 H23         -5.2350    -3.0920     0.5610 h1         1 3D2       0.025700
     45 H24         -7.9740    -2.2190     1.0470 hn         1 3D2       0.391000
     46 H25         -7.4410    -3.7390     0.9910 hn         1 3D2       0.391000
     47 H2           3.3920    -2.9530    -0.4100 ha         1 3D2       0.113000
@<TRIPOS>BOND
     1     1     6 ar  
     2     1    12 ar  
     3     1    24 1   
     4     2     3 ar  
     5     2     7 ar  
     6     2    47 1   
     7     3     4 1   
     8     3    10 ar  
     9     4     5 ar  
    10     4    13 ar  
    11     5     6 ar  
    12     5    25 1   
    13     6    26 1   
    14     7     8 ar  
    15     7    27 1   
    16     8     9 ar  
    17     8    28 1   
    18     9    10 ar  
    19     9    11 1   
    20    10    29 1   
    21    11    14 1   
    22    11    30 1   
    23    11    31 1   
    24    12    13 ar  
    25    13    32 1   
    26    14    15 1   
    27    14    33 1   
    28    15    16 1   
    29    15    19 1   
    30    15    34 1   
    31    16    17 2   
    32    16    18 1   
    33    18    35 1   
    34    18    36 1   
    35    19    20 1   
    36    19    37 1   
    37    19    38 1   
    38    20    21 1   
    39    20    39 1   
    40    20    40 1   
    41    21    22 1   
    42    21    41 1   
    43    21    42 1   
    44    22    23 1   
    45    22    43 1   
    46    22    44 1   
    47    23    45 1   
    48    23    46 1   
@<TRIPOS>SUBSTRUCTURE
     1 3D2         1 TEMP              0 ****  ****    0 ROOT
