@<TRIPOS>MOLECULE
3D3
   23    24     1     0     0
SMALL
abcg2


@<TRIPOS>ATOM
      1 N1          -0.1800     0.9280     0.0040 nc         1 3D3      -0.671700
      2 C3          -1.5440     0.9130    -0.0070 ca         1 3D3       0.269000
      3 N7          -2.3470     1.9820     0.0050 nb         1 3D3      -0.160000
      4 C9          -3.6260     1.6670    -0.0160 ca         1 3D3       0.152900
      5 N8          -4.1810     0.4560    -0.0420 nb         1 3D3      -0.275000
      6 C6          -3.3930    -0.6210    -0.0540 ca         1 3D3       0.410900
      7 N13         -3.9570    -1.8390    -0.1140 nv         1 3D3      -1.073900
      8 C2          -2.0120    -0.3960    -0.0370 ca         1 3D3      -0.258200
      9 N4          -0.8860    -1.1840    -0.0460 na         1 3D3      -0.280600
     10 C5           0.1680    -0.3360    -0.0200 cd         1 3D3       0.425700
     11 S10          1.7890    -0.9640    -0.0240 ss         1 3D3      -0.145200
     12 C14          2.6920     0.6020     0.0080 c3         1 3D3      -0.059400
     13 C11          4.1670     0.2540    -0.0100 c          1 3D3       0.616100
     14 O12          4.5430    -0.9070    -0.0320 o          1 3D3      -0.594100
     15 N15          4.9840     1.3110     0.0000 nt         1 3D3      -0.600000
     16 H9          -4.3270     2.4950    -0.0080 h5         1 3D3       0.049100
     17 H131        -3.4230    -2.6680     0.0800 hn         1 3D3       0.490500
     18 H132        -4.9520    -1.9080     0.0170 hn         1 3D3       0.490500
     19 H4          -0.8400    -2.1910    -0.0700 hn         1 3D3       0.366000
     20 H141         2.4390     1.1690     0.9040 h1         1 3D3       0.102700
     21 H142         2.4270     1.2100    -0.8580 h1         1 3D3       0.102700
     22 H151         5.9820     1.1820    -0.0110 hn         1 3D3       0.321000
     23 H152         4.6360     2.2550     0.0140 hn         1 3D3       0.321000
@<TRIPOS>BOND
     1     1     2 1   
     2     1    10 2   
     3     2     3 ar  
     4     2     8 ar  
     5     3     4 ar  
     6     4     5 ar  
     7     4    16 1   
     8     5     6 ar  
     9     6     7 1   
    10     6     8 ar  
    11     7    17 1   
    12     7    18 1   
    13     8     9 1   
    14     9    10 1   
    15     9    19 1   
    16    10    11 1   
    17    11    12 1   
    18    12    13 1   
    19    12    20 1   
    20    12    21 1   
    21    13    14 2   
    22    13    15 1   
    23    15    22 1   
    24    15    23 1   
@<TRIPOS>SUBSTRUCTURE
     1 3D3         1 TEMP              0 ****  ****    0 ROOT
