@<TRIPOS>MOLECULE
3D3
   23    24     1     0     0
SMALL
No Charge or Current Charge


@<TRIPOS>ATOM
      1 N1          -0.2120     0.9770    -0.0020 nc         1 3D3      -0.671700
      2 C3          -1.6010     0.9550    -0.0150 ca         1 3D3       0.269000
      3 N7          -2.4660     1.9880     0.0040 nb         1 3D3      -0.160000
      4 C9          -3.7820     1.6660    -0.0200 ca         1 3D3       0.152900
      5 N8          -4.3120     0.4190    -0.0590 nb         1 3D3      -0.275000
      6 C6          -3.4340    -0.5930    -0.0760 ca         1 3D3       0.410900
      7 N13         -3.9580    -1.8450    -0.1070 nv         1 3D3      -1.073900
      8 C2          -2.0570    -0.3430    -0.0550 ca         1 3D3      -0.258200
      9 N4          -0.9870    -1.2100    -0.0730 na         1 3D3      -0.280600
     10 C5           0.0880    -0.3300    -0.0370 cd         1 3D3       0.425700
     11 S10          1.7310    -0.9780    -0.0540 ss         1 3D3      -0.145200
     12 C14          2.7920     0.5460    -0.0040 c3         1 3D3      -0.059400
     13 C11          4.2960     0.2500    -0.0100 c          1 3D3       0.616100
     14 O12          4.7790    -0.8710    -0.0430 o          1 3D3      -0.594100
     15 N15          5.1040     1.3320     0.0250 nt         1 3D3      -0.600000
     16 H9          -4.4860     2.4960    -0.0060 h5         1 3D3       0.049100
     17 H131        -3.3670    -2.6260     0.1620 hn         1 3D3       0.490500
     18 H132        -4.9530    -1.9510     0.0760 hn         1 3D3       0.490500
     19 H4          -0.9600    -2.2210    -0.1270 hn         1 3D3       0.366000
     20 H141         2.5630     1.1170     0.9030 h1         1 3D3       0.102700
     21 H142         2.5670     1.1730    -0.8740 h1         1 3D3       0.102700
     22 H151         6.1040     1.1990     0.0230 hn         1 3D3       0.321000
     23 H152         4.7110     2.2620     0.0520 hn         1 3D3       0.321000
@<TRIPOS>BOND
     1     1     2 1   
     2     1    10 2   
     3     2     3 ar  
     4     2     8 ar  
     5     3     4 ar  
     6     4     5 ar  
     7     4    16 1   
     8     5     6 ar  
     9     6     7 1   
    10     6     8 ar  
    11     7    17 1   
    12     7    18 1   
    13     8     9 1   
    14     9    10 1   
    15     9    19 1   
    16    10    11 1   
    17    11    12 1   
    18    12    13 1   
    19    12    20 1   
    20    12    21 1   
    21    13    14 2   
    22    13    15 1   
    23    15    22 1   
    24    15    23 1   
@<TRIPOS>SUBSTRUCTURE
     1 3D3         1 TEMP              0 ****  ****    0 ROOT
