@<TRIPOS>MOLECULE
3D4
   90    92     1     0     0
SMALL
No Charge or Current Charge


@<TRIPOS>ATOM
      1 N            2.4750    -1.6550     0.2780 n7         1 3D4      -0.856400
      2 CA           1.4020    -2.6610     0.5590 c3         1 3D4       0.107500
      3 CAI         -2.3990    -1.6250    -3.1030 ca         1 3D4      -0.107000
      4 CAJ         -3.6310    -0.9830    -3.3100 ca         1 3D4      -0.106500
      5 CAK         -1.4060    -1.0030    -2.3280 ca         1 3D4      -0.106500
      6 CAL          8.4250     4.6090    -0.1520 ca         1 3D4      -0.164000
      7 CAM          8.7040     4.9950    -1.4720 ca         1 3D4       0.334900
      8 CAN         -3.8710     0.2810    -2.7420 ca         1 3D4      -0.105000
      9 CAO         -1.6470     0.2590    -1.7570 ca         1 3D4      -0.105000
     10 CAP          7.3480     3.7430     0.0980 ca         1 3D4      -0.066000
     11 CAQ          3.9670     0.5220    -1.5770 ca         1 3D4      -0.094000
     12 CAR          3.5270     1.5460     0.5800 ca         1 3D4      -0.094000
     13 CAS          5.0560     1.3900    -1.7660 ca         1 3D4      -0.102500
     14 CAT          4.6170     2.4120     0.3900 ca         1 3D4      -0.102500
     15 CAU          6.9400     3.7320    -2.2850 ca         1 3D4       0.343900
     16 CAZ         -1.9320    -1.6500     2.3380 c3         1 3D4       0.015000
     17 C            0.4550    -2.2440     1.7390 c          1 3D4       0.558100
     18 O            0.8560    -2.0370     2.8780 o          1 3D4      -0.614100
     19 OAG         -5.4350     1.9010     2.4130 oh         1 3D4      -0.666000
     20 OAH         -6.7220    -2.1380     3.1870 oh         1 3D4      -0.654000
     21 CB           2.0390    -4.0480     0.8320 c3         1 3D4      -0.066400
     22 CBA          2.0120    -0.3410    -0.2030 c3         1 3D4       0.206100
     23 CBB         -3.1310     2.2910    -1.3510 c3         1 3D4      -0.035100
     24 CBH         -4.5830     3.8510     0.0760 c          1 3D4       0.608100
     25 CBI         -3.2780    -1.4470     1.6080 c          1 3D4       0.600100
     26 CBK         -5.5390     1.0240     1.3340 c3         1 3D4       0.395500
     27 CBL          3.1940     0.5950    -0.4030 ca         1 3D4      -0.084300
     28 CBM         -2.8820     0.9090    -1.9570 ca         1 3D4      -0.101300
     29 CBN          5.4060     2.3540    -0.7870 cp         1 3D4      -0.032000
     30 CBO          6.5680     3.2780    -0.9900 cp         1 3D4      -0.082000
     31 CBP         -6.7780    -0.7640     2.7830 c3         1 3D4       0.173300
     32 CBR         -4.3970     2.3810    -0.4580 c3         1 3D4       0.115500
     33 CBS         -5.5950    -0.4650     1.8150 c3         1 3D4       0.036700
     34 NBC          7.9780     4.5690    -2.5290 nb         1 3D4      -0.667000
     35 NBD         -0.8730    -2.0920     1.4040 ns         1 3D4      -0.493900
     36 NBF         -4.2980    -0.9290     2.3750 ns         1 3D4      -0.505900
     37 NBG         -4.3260     1.3130     0.5950 n7         1 3D4      -0.916400
     38 CG           2.7720    -4.6590    -0.3870 c3         1 3D4      -0.072400
     39 CD           3.3540    -6.0620    -0.1040 c3         1 3D4      -0.079400
     40 CE           4.0840    -6.6640    -1.3220 c3         1 3D4       0.149800
     41 NZ           4.6240    -8.0030    -1.0220 n8         1 3D4      -0.996200
     42 H1           3.0020    -1.5010     1.1470 hn         1 3D4       0.436000
     43 H3           0.7670    -2.7710    -0.3310 h1         1 3D4       0.064700
     44 H7          -2.2130    -2.6020    -3.5440 ha         1 3D4       0.114000
     45 H8          -4.3990    -1.4620    -3.9130 ha         1 3D4       0.115500
     46 H9          -0.4510    -1.4980    -2.1750 ha         1 3D4       0.115500
     47 H10          9.0420     4.9770     0.6640 ha         1 3D4       0.123000
     48 H11          9.5350     5.6660    -1.6910 h4         1 3D4       0.019100
     49 H12         -4.8250     0.7720    -2.9200 ha         1 3D4       0.114000
     50 H13         -0.8710     0.7320    -1.1590 ha         1 3D4       0.114000
     51 H14          7.1330     3.4270     1.1160 ha         1 3D4       0.121000
     52 H15          3.7240    -0.2130    -2.3410 ha         1 3D4       0.120500
     53 H16          2.9380     1.6160     1.4920 ha         1 3D4       0.120500
     54 H17          5.6420     1.3000    -2.6770 ha         1 3D4       0.114500
     55 H18          4.8410     3.1460     1.1600 ha         1 3D4       0.114500
     56 H19          6.3730     3.4220    -3.1620 h4         1 3D4       0.020100
     57 H20         -1.6440    -0.6970     2.8000 h1         1 3D4       0.071700
     58 H21         -2.0720    -2.4000     3.1260 h1         1 3D4       0.071700
     59 H22         -5.1130     5.7340    -0.5210 hn         1 3D4       0.314000
     60 H23         -5.1440     4.5210    -1.7860 hn         1 3D4       0.314000
     61 H24         -4.8300     2.5860     2.0420 ho         1 3D4       0.467000
     62 H25         -5.7700    -2.3780     3.1960 ho         1 3D4       0.446000
     63 H26          2.7340    -3.9710     1.6780 hc         1 3D4       0.050700
     64 H27          1.2450    -4.7390     1.1420 hc         1 3D4       0.050700
     65 H28          1.4790    -0.4490    -1.1570 h1         1 3D4       0.041700
     66 H29          1.3130     0.1120     0.5130 h1         1 3D4       0.041700
     67 H30         -2.2660     2.6040    -0.7530 hc         1 3D4       0.068200
     68 H31         -3.2130     3.0240    -2.1630 hc         1 3D4       0.068200
     69 H32         -6.4350     1.2600     0.7430 h2         1 3D4       0.053700
     70 H33         -6.6690    -0.1240     3.6690 h1         1 3D4       0.041700
     71 H34         -5.2630     2.1810    -1.1030 h1         1 3D4       0.026700
     72 H35         -5.7920    -1.0590     0.9120 h1         1 3D4       0.094700
     73 H36         -1.1350    -2.2630     0.4380 hn         1 3D4       0.341500
     74 H37         -4.0600    -0.6540     3.3220 hn         1 3D4       0.317500
     75 H38         -4.0710     0.4360     0.1170 hn         1 3D4       0.462000
     76 H40          2.0750    -4.7230    -1.2320 hc         1 3D4       0.045700
     77 H41          3.5870    -3.9920    -0.6970 hc         1 3D4       0.045700
     78 H42          4.0510    -5.9970     0.7410 hc         1 3D4       0.046200
     79 H43          2.5420    -6.7340     0.1990 hc         1 3D4       0.046200
     80 H44          3.3870    -6.7480    -2.1670 h1         1 3D4       0.026200
     81 H45          4.9140    -6.0080    -1.6190 h1         1 3D4       0.026200
     82 H46          5.1540    -8.3390    -1.8360 hn         1 3D4       0.391500
     83 H47          5.3380    -7.9180    -0.2890 hn         1 3D4       0.391500
     84 CAA         -8.1690    -0.4960     2.1690 c3         1 3D4      -0.089100
     85 OAE         -3.4390    -1.7140     0.4240 o          1 3D4      -0.610100
     86 NAC         -4.9790     4.7810    -0.8250 nt         1 3D4      -0.605000
     87 OAD         -4.4000     4.1780     1.2410 o          1 3D4      -0.598100
     88 H4          -8.9600    -0.7750     2.8750 hc         1 3D4       0.048367
     89 H5          -8.2960     0.5660     1.9310 hc         1 3D4       0.048367
     90 H6          -8.3100    -1.0770     1.2490 hc         1 3D4       0.048367
@<TRIPOS>BOND
     1     1     2 1   
     2     1    22 1   
     3     1    42 1   
     4     2    17 1   
     5     2    21 1   
     6     2    43 1   
     7     3     4 ar  
     8     3     5 ar  
     9     3    44 1   
    10     4     8 ar  
    11     4    45 1   
    12     5     9 ar  
    13     5    46 1   
    14     6     7 ar  
    15     6    10 ar  
    16     6    47 1   
    17     7    34 ar  
    18     7    48 1   
    19     8    28 ar  
    20     8    49 1   
    21     9    28 ar  
    22     9    50 1   
    23    10    30 ar  
    24    10    51 1   
    25    11    13 ar  
    26    11    27 ar  
    27    11    52 1   
    28    12    14 ar  
    29    12    27 ar  
    30    12    53 1   
    31    13    29 ar  
    32    13    54 1   
    33    14    29 ar  
    34    14    55 1   
    35    15    30 ar  
    36    15    34 ar  
    37    15    56 1   
    38    16    25 1   
    39    16    35 1   
    40    16    57 1   
    41    16    58 1   
    42    17    18 2   
    43    17    35 1   
    44    19    26 1   
    45    19    61 1   
    46    20    31 1   
    47    20    62 1   
    48    21    38 1   
    49    21    63 1   
    50    21    64 1   
    51    22    27 1   
    52    22    65 1   
    53    22    66 1   
    54    23    28 1   
    55    23    32 1   
    56    23    67 1   
    57    23    68 1   
    58    24    32 1   
    59    24    86 1   
    60    24    87 2   
    61    25    36 1   
    62    25    85 2   
    63    26    33 1   
    64    26    37 1   
    65    26    69 1   
    66    29    30 1   
    67    31    33 1   
    68    31    70 1   
    69    31    84 1   
    70    32    37 1   
    71    32    71 1   
    72    33    36 1   
    73    33    72 1   
    74    35    73 1   
    75    36    74 1   
    76    37    75 1   
    77    38    39 1   
    78    38    76 1   
    79    38    77 1   
    80    39    40 1   
    81    39    78 1   
    82    39    79 1   
    83    40    41 1   
    84    40    80 1   
    85    40    81 1   
    86    41    82 1   
    87    41    83 1   
    88    59    86 1   
    89    60    86 1   
    90    84    88 1   
    91    84    89 1   
    92    84    90 1   
@<TRIPOS>SUBSTRUCTURE
     1 3D4         1 TEMP              0 ****  ****    0 ROOT
