@<TRIPOS>MOLECULE
3D4
   90    92     1     0     0
SMALL
bcc


@<TRIPOS>ATOM
      1 N            3.1220    -1.1130     0.2730 n7         1 3D4      -0.801200
      2 CA           1.8610    -1.8100     0.3530 c3         1 3D4       0.107500
      3 CAI         -5.3940    -0.9580    -4.4410 ca         1 3D4      -0.125000
      4 CAJ         -6.4660    -0.0840    -4.2950 ca         1 3D4      -0.124500
      5 CAK         -4.2240    -0.7320    -3.7310 ca         1 3D4      -0.124500
      6 CAL         10.1210     3.8630     0.3670 ca         1 3D4      -0.247300
      7 CAM         10.8440     3.6220    -0.7920 ca         1 3D4       0.400200
      8 CAN         -6.3650     1.0040    -3.4410 ca         1 3D4      -0.123000
      9 CAO         -4.1250     0.3620    -2.8790 ca         1 3D4      -0.123000
     10 CAP          8.8500     3.3280     0.4790 ca         1 3D4      -0.084000
     11 CAQ          5.4610     0.1590    -0.9910 ca         1 3D4      -0.112000
     12 CAR          4.6650     2.0890     0.1720 ca         1 3D4      -0.112000
     13 CAS          6.7260     0.7180    -1.0580 ca         1 3D4      -0.120500
     14 CAT          5.9310     2.6540     0.1050 ca         1 3D4      -0.120500
     15 CAU          9.1450     2.4030    -1.6900 ca         1 3D4       0.409200
     16 CAZ         -1.4460    -0.6390     1.7980 c3         1 3D4       0.015000
     17 C            0.8850    -1.1490     1.3290 c          1 3D4       0.625100
     18 O            1.2660    -0.6850     2.3970 o          1 3D4      -0.614100
     19 OAG         -5.8830     1.3200     2.4260 oh         1 3D4      -0.603800
     20 OAH         -5.3750    -2.9060     3.0620 oh         1 3D4      -0.591800
     21 CB           2.0870    -3.2590     0.7960 c3         1 3D4      -0.066400
     22 CBA          3.0410     0.2180    -0.2980 c3         1 3D4       0.206100
     23 CBB         -5.1050     2.4050    -1.7740 c3         1 3D4      -0.035100
     24 CBH         -5.7150     3.3920     0.4080 c          1 3D4       0.675100
     25 CBI         -2.8030    -0.9990     1.2210 c          1 3D4       0.667100
     26 CBK         -5.8430     0.4380     1.3330 c3         1 3D4       0.372300
     27 CBL          4.4100     0.8380    -0.3770 ca         1 3D4      -0.084300
     28 CBM         -5.1930     1.2430    -2.7230 ca         1 3D4      -0.101300
     29 CBN          6.9820     1.9770    -0.5090 cp         1 3D4      -0.032000
     30 CBO          8.3300     2.5720    -0.5700 cp         1 3D4      -0.147300
     31 CBP         -5.9550    -1.6360     2.8490 c3         1 3D4       0.150100
     32 CBR         -5.7850     2.1120    -0.4250 c3         1 3D4       0.115500
     33 CBS         -5.2240    -0.9170     1.7060 c3         1 3D4       0.036700
     34 NBC         10.3660     2.9080    -1.8040 nb         1 3D4      -0.667000
     35 NBD         -0.4010    -1.1490     0.9560 ns         1 3D4      -0.560900
     36 NBF         -3.8260    -0.7730     2.0630 ns         1 3D4      -0.572900
     37 NBG         -5.1070     1.0280     0.2480 n7         1 3D4      -0.861200
     38 CG           2.8660    -4.0780    -0.2250 c3         1 3D4      -0.072400
     39 CD           3.1630    -5.4910     0.2590 c3         1 3D4      -0.079400
     40 CE           3.9080    -6.3180    -0.7780 c3         1 3D4       0.149800
     41 NZ           4.1780    -7.6610    -0.2840 n8         1 3D4      -0.885800
     42 H1           3.5290    -1.0570     1.2000 hn         1 3D4       0.380800
     43 H3           1.4150    -1.8200    -0.6490 h1         1 3D4       0.064700
     44 H7          -5.4710    -1.8070    -5.1070 ha         1 3D4       0.132000
     45 H8          -7.3800    -0.2510    -4.8490 ha         1 3D4       0.133500
     46 H9          -3.3830    -1.4050    -3.8400 ha         1 3D4       0.133500
     47 H10         10.5520     4.4490     1.1680 ha         1 3D4       0.141000
     48 H11         11.8450     4.0210    -0.9080 h4         1 3D4       0.019100
     49 H12         -7.2040     1.6820    -3.3350 ha         1 3D4       0.132000
     50 H13         -3.2050     0.5320    -2.3320 ha         1 3D4       0.132000
     51 H14          8.2730     3.4840     1.3820 ha         1 3D4       0.139000
     52 H15          5.2880    -0.8260    -1.4070 ha         1 3D4       0.138500
     53 H16          3.8660     2.6340     0.6600 ha         1 3D4       0.138500
     54 H17          7.5270     0.1570    -1.5230 ha         1 3D4       0.132500
     55 H18          6.0930     3.6390     0.5270 ha         1 3D4       0.132500
     56 H19          8.7800     1.8420    -2.5450 h4         1 3D4       0.020100
     57 H20         -1.3920     0.4530     1.8830 h1         1 3D4       0.071700
     58 H21         -1.3540    -1.0330     2.8130 h1         1 3D4       0.071700
     59 H22         -6.9130     4.9460     0.9810 hn         1 3D4       0.314000
     60 H23         -7.7290     3.6960     0.1290 hn         1 3D4       0.314000
     61 H24         -5.0040     1.7090     2.5180 ho         1 3D4       0.428000
     62 H25         -4.4390    -2.7840     3.2510 ho         1 3D4       0.407000
     63 H26          2.6140    -3.2560     1.7560 hc         1 3D4       0.050700
     64 H27          1.1190    -3.7350     0.9810 hc         1 3D4       0.050700
     65 H28          2.6230     0.1260    -1.3050 h1         1 3D4       0.041700
     66 H29          2.3750     0.8980     0.2520 h1         1 3D4       0.041700
     67 H30         -4.0600     2.6630    -1.5900 hc         1 3D4       0.068200
     68 H31         -5.5810     3.2830    -2.2170 hc         1 3D4       0.068200
     69 H32         -6.8960     0.2660     1.0660 h2         1 3D4       0.053700
     70 H33         -5.8720    -1.0200     3.7560 h1         1 3D4       0.041700
     71 H34         -6.8410     1.8670    -0.6240 h1         1 3D4       0.026700
     72 H35         -5.2730    -1.5640     0.8260 h1         1 3D4       0.094700
     73 H36         -0.6700    -1.5140     0.0550 hn         1 3D4       0.341500
     74 H37         -3.6100    -0.3590     2.9590 hn         1 3D4       0.317500
     75 H38         -4.8310     0.3180    -0.4180 hn         1 3D4       0.406800
     76 H40          2.2920    -4.1250    -1.1570 hc         1 3D4       0.045700
     77 H41          3.7990    -3.5630    -0.4650 hc         1 3D4       0.045700
     78 H42          3.7580    -5.4410     1.1780 hc         1 3D4       0.046200
     79 H43          2.2310    -6.0020     0.5220 hc         1 3D4       0.046200
     80 H44          3.2890    -6.4020    -1.6760 h1         1 3D4       0.026200
     81 H45          4.8130    -5.7720    -1.0830 h1         1 3D4       0.026200
     82 H46          4.6310    -8.2020    -1.0090 hn         1 3D4       0.336300
     83 H47          4.8480    -7.6080     0.4730 hn         1 3D4       0.336300
     84 CAA         -7.4280    -1.8570     2.5560 c3         1 3D4      -0.089100
     85 OAE         -2.9270    -1.4480     0.0940 o          1 3D4      -0.610100
     86 NAC         -6.8680     4.0660     0.4930 nt         1 3D4      -0.672000
     87 OAD         -4.6650     3.7900     0.8900 o          1 3D4      -0.598100
     88 H4          -7.8650    -2.5040     3.3170 hc         1 3D4       0.048367
     89 H5          -7.9830    -0.9200     2.5740 hc         1 3D4       0.048367
     90 H6          -7.5800    -2.3250     1.5820 hc         1 3D4       0.048367
@<TRIPOS>BOND
     1     1     2 1   
     2     1    22 1   
     3     1    42 1   
     4     2    17 1   
     5     2    21 1   
     6     2    43 1   
     7     3     4 ar  
     8     3     5 ar  
     9     3    44 1   
    10     4     8 ar  
    11     4    45 1   
    12     5     9 ar  
    13     5    46 1   
    14     6     7 ar  
    15     6    10 ar  
    16     6    47 1   
    17     7    34 ar  
    18     7    48 1   
    19     8    28 ar  
    20     8    49 1   
    21     9    28 ar  
    22     9    50 1   
    23    10    30 ar  
    24    10    51 1   
    25    11    13 ar  
    26    11    27 ar  
    27    11    52 1   
    28    12    14 ar  
    29    12    27 ar  
    30    12    53 1   
    31    13    29 ar  
    32    13    54 1   
    33    14    29 ar  
    34    14    55 1   
    35    15    30 ar  
    36    15    34 ar  
    37    15    56 1   
    38    16    25 1   
    39    16    35 1   
    40    16    57 1   
    41    16    58 1   
    42    17    18 2   
    43    17    35 1   
    44    19    26 1   
    45    19    61 1   
    46    20    31 1   
    47    20    62 1   
    48    21    38 1   
    49    21    63 1   
    50    21    64 1   
    51    22    27 1   
    52    22    65 1   
    53    22    66 1   
    54    23    28 1   
    55    23    32 1   
    56    23    67 1   
    57    23    68 1   
    58    24    32 1   
    59    24    86 1   
    60    24    87 2   
    61    25    36 1   
    62    25    85 2   
    63    26    33 1   
    64    26    37 1   
    65    26    69 1   
    66    29    30 1   
    67    31    33 1   
    68    31    70 1   
    69    31    84 1   
    70    32    37 1   
    71    32    71 1   
    72    33    36 1   
    73    33    72 1   
    74    35    73 1   
    75    36    74 1   
    76    37    75 1   
    77    38    39 1   
    78    38    76 1   
    79    38    77 1   
    80    39    40 1   
    81    39    78 1   
    82    39    79 1   
    83    40    41 1   
    84    40    80 1   
    85    40    81 1   
    86    41    82 1   
    87    41    83 1   
    88    59    86 1   
    89    60    86 1   
    90    84    88 1   
    91    84    89 1   
    92    84    90 1   
@<TRIPOS>SUBSTRUCTURE
     1 3D4         1 TEMP              0 ****  ****    0 ROOT
