@<TRIPOS>MOLECULE
3D5
   47    48     1     0     0
SMALL
bcc


@<TRIPOS>ATOM
      1 C18         -5.3180     0.4060     0.9710 ca         1 3D5      -0.083000
      2 C19         -6.6120    -0.0290     1.2010 ca         1 3D5      -0.247300
      3 C20         -7.0900    -1.1060     0.4690 ca         1 3D5       0.400200
      4 N21         -6.3590    -1.7450    -0.4370 nb         1 3D5      -0.666000
      5 C22         -5.1200    -1.3240    -0.6470 ca         1 3D5       0.409200
      6 C17         -4.5350    -0.2460     0.0200 cp         1 3D5      -0.148300
      7 C16         -3.1520     0.1710    -0.2680 cp         1 3D5      -0.032000
      8 C15         -2.3080     0.5990     0.7590 ca         1 3D5      -0.121000
      9 C14         -1.0060     0.9870     0.4950 ca         1 3D5      -0.113000
     10 C13         -2.6480     0.1480    -1.5670 ca         1 3D5      -0.121000
     11 C12         -1.3420     0.5370    -1.8280 ca         1 3D5      -0.113000
     12 C11         -0.5040     0.9660    -0.8060 ca         1 3D5      -0.087300
     13 C10          0.9090     1.3970    -1.0860 c3         1 3D5       0.203100
     14 N09          1.8380     0.7160    -0.2030 n7         1 3D5      -0.787200
     15 C03          3.2220     1.0660    -0.4260 c3         1 3D5       0.101500
     16 C02          3.4670     2.5140    -0.0010 c          1 3D5       0.666100
     17 O23          2.9830     2.9830     1.0170 o          1 3D5      -0.577100
     18 N01          4.2920     3.1960    -0.8080 nt         1 3D5      -0.684000
     19 C04          4.1520     0.1740     0.4030 c3         1 3D5      -0.076400
     20 C05          4.0970    -1.3030     0.0260 c3         1 3D5      -0.078400
     21 C06          5.1220    -2.1320     0.7900 c3         1 3D5      -0.078400
     22 C07          5.0460    -3.6120     0.4500 c3         1 3D5       0.149800
     23 N08          6.0210    -4.3760     1.2160 n8         1 3D5      -0.883800
     24 H1          -4.9270     1.2580     1.5140 ha         1 3D5       0.140000
     25 H2          -7.2440     0.4610     1.9280 ha         1 3D5       0.142000
     26 H3          -8.1020    -1.4650     0.6200 h4         1 3D5       0.019100
     27 H4          -4.5430    -1.8830    -1.3760 h4         1 3D5       0.019100
     28 H5          -2.6650     0.6090     1.7820 ha         1 3D5       0.133500
     29 H6          -0.3650     1.3040     1.3090 ha         1 3D5       0.141500
     30 H7          -3.2800    -0.1630    -2.3900 ha         1 3D5       0.133500
     31 H8          -0.9750     0.5110    -2.8470 ha         1 3D5       0.141500
     32 H9           1.1340     1.2400    -2.1520 h1         1 3D5       0.039700
     33 H10          0.9900     2.4750    -0.9140 h1         1 3D5       0.039700
     34 H11          1.7270    -0.2810    -0.3360 hn         1 3D5       0.364800
     35 H13          3.5110     0.9610    -1.4870 h1         1 3D5       0.015700
     36 H14          4.6510     2.7970    -1.6570 hn         1 3D5       0.312000
     37 H15          4.5780     4.1340    -0.5790 hn         1 3D5       0.312000
     38 H16          5.1780     0.5320     0.2710 hc         1 3D5       0.059700
     39 H17          3.9080     0.2970     1.4620 hc         1 3D5       0.059700
     40 H18          3.1020    -1.7120     0.2310 hc         1 3D5       0.037200
     41 H19          4.2630    -1.4120    -1.0510 hc         1 3D5       0.037200
     42 H20          6.1280    -1.7600     0.5680 hc         1 3D5       0.048700
     43 H21          4.9730    -2.0030     1.8670 hc         1 3D5       0.048700
     44 H22          4.0480    -3.9840     0.7030 h1         1 3D5       0.026200
     45 H23          5.1510    -3.7320    -0.6380 h1         1 3D5       0.026200
     46 H24          5.9260    -5.3590     0.9970 hn         1 3D5       0.336800
     47 H25          6.9540    -4.1210     0.9160 hn         1 3D5       0.336800
@<TRIPOS>BOND
     1     1     2 ar  
     2     1     6 ar  
     3     1    24 1   
     4     2     3 ar  
     5     2    25 1   
     6     3     4 ar  
     7     3    26 1   
     8     4     5 ar  
     9     5     6 ar  
    10     5    27 1   
    11     6     7 1   
    12     7     8 ar  
    13     7    10 ar  
    14     8     9 ar  
    15     8    28 1   
    16     9    12 ar  
    17     9    29 1   
    18    10    11 ar  
    19    10    30 1   
    20    11    12 ar  
    21    11    31 1   
    22    12    13 1   
    23    13    14 1   
    24    13    32 1   
    25    13    33 1   
    26    14    15 1   
    27    14    34 1   
    28    15    16 1   
    29    15    19 1   
    30    15    35 1   
    31    16    17 2   
    32    16    18 1   
    33    18    36 1   
    34    18    37 1   
    35    19    20 1   
    36    19    38 1   
    37    19    39 1   
    38    20    21 1   
    39    20    40 1   
    40    20    41 1   
    41    21    22 1   
    42    21    42 1   
    43    21    43 1   
    44    22    23 1   
    45    22    44 1   
    46    22    45 1   
    47    23    46 1   
    48    23    47 1   
@<TRIPOS>SUBSTRUCTURE
     1 3D5         1 TEMP              0 ****  ****    0 ROOT
