@<TRIPOS>MOLECULE
3D5
   47    48     1     0     0
SMALL
No Charge or Current Charge


@<TRIPOS>ATOM
      1 C18         -5.4420     0.5130     0.6210 ca         1 3D5      -0.065000
      2 C19         -6.7300    -0.0060     0.8280 ca         1 3D5      -0.164000
      3 C20         -7.0020    -1.3350     0.4660 ca         1 3D5       0.334900
      4 N21         -6.0720    -2.1500    -0.0790 nb         1 3D5      -0.666000
      5 C22         -4.8300    -1.6450    -0.2790 ca         1 3D5       0.343900
      6 C17         -4.4450    -0.3170     0.0510 cp         1 3D5      -0.083000
      7 C16         -3.0530     0.1800    -0.1940 cp         1 3D5      -0.032000
      8 C15         -2.4560     1.1430     0.6590 ca         1 3D5      -0.103000
      9 C14         -1.1500     1.6080     0.4310 ca         1 3D5      -0.095000
     10 C13         -2.2840    -0.2990    -1.2840 ca         1 3D5      -0.103000
     11 C12         -0.9770     0.1660    -1.5140 ca         1 3D5      -0.095000
     12 C11         -0.4020     1.1240    -0.6580 ca         1 3D5      -0.087300
     13 C10          1.0120     1.6290    -0.9050 c3         1 3D5       0.203100
     14 N09          1.9700     0.8830    -0.0700 n7         1 3D5      -0.842400
     15 C03          3.4230     1.1720    -0.2880 c3         1 3D5       0.101500
     16 C02          3.8520     2.6450     0.0800 c          1 3D5       0.599100
     17 O23          4.3720     2.9680     1.1390 o          1 3D5      -0.577100
     18 N01          3.6310     3.5890    -0.8670 nt         1 3D5      -0.617000
     19 C04          4.2580     0.1240     0.4960 c3         1 3D5      -0.076400
     20 C05          4.1020    -1.3310    -0.0150 c3         1 3D5      -0.078400
     21 C06          5.0020    -2.3360     0.7380 c3         1 3D5      -0.078400
     22 C07          4.8430    -3.7820     0.2270 c3         1 3D5       0.149800
     23 N08          5.7130    -4.7160     0.9650 n8         1 3D5      -0.994200
     24 H1          -5.2270     1.5460     0.8860 ha         1 3D5       0.122000
     25 H2          -7.5140     0.6100     1.2600 ha         1 3D5       0.124000
     26 H3          -7.9940    -1.7600     0.6160 h4         1 3D5       0.019100
     27 H4          -4.1070    -2.3380    -0.7080 h4         1 3D5       0.019100
     28 H5          -3.0040     1.5250     1.5170 ha         1 3D5       0.115500
     29 H6          -0.7140     2.3420     1.1050 ha         1 3D5       0.123500
     30 H7          -2.7060    -1.0290    -1.9700 ha         1 3D5       0.115500
     31 H8          -0.4130    -0.2180    -2.3610 ha         1 3D5       0.123500
     32 H9           1.2550     1.5090    -1.9700 h1         1 3D5       0.039700
     33 H10          1.0490     2.7030    -0.6770 h1         1 3D5       0.039700
     34 H11          1.8160    -0.1140    -0.2550 hn         1 3D5       0.420000
     35 H13          3.6560     1.0410    -1.3540 h1         1 3D5       0.015700
     36 H14          3.2100     3.3310    -1.7470 hn         1 3D5       0.312000
     37 H15          3.8900     4.5460    -0.6810 hn         1 3D5       0.312000
     38 H16          5.3180     0.4010     0.4240 hc         1 3D5       0.059700
     39 H17          3.9960     0.1700     1.5610 hc         1 3D5       0.059700
     40 H18          3.0570    -1.6490     0.0870 hc         1 3D5       0.037200
     41 H19          4.3440    -1.3640    -1.0850 hc         1 3D5       0.037200
     42 H20          6.0500    -2.0280     0.6340 hc         1 3D5       0.048700
     43 H21          4.7610    -2.3020     1.8080 hc         1 3D5       0.048700
     44 H22          3.8000    -4.1050     0.3470 h1         1 3D5       0.026200
     45 H23          5.1020    -3.8290    -0.8400 h1         1 3D5       0.026200
     46 H24          5.6230    -5.6530     0.5530 hn         1 3D5       0.392000
     47 H25          6.6940    -4.4700     0.7870 hn         1 3D5       0.392000
@<TRIPOS>BOND
     1     1     2 ar  
     2     1     6 ar  
     3     1    24 1   
     4     2     3 ar  
     5     2    25 1   
     6     3     4 ar  
     7     3    26 1   
     8     4     5 ar  
     9     5     6 ar  
    10     5    27 1   
    11     6     7 1   
    12     7     8 ar  
    13     7    10 ar  
    14     8     9 ar  
    15     8    28 1   
    16     9    12 ar  
    17     9    29 1   
    18    10    11 ar  
    19    10    30 1   
    20    11    12 ar  
    21    11    31 1   
    22    12    13 1   
    23    13    14 1   
    24    13    32 1   
    25    13    33 1   
    26    14    15 1   
    27    14    34 1   
    28    15    16 1   
    29    15    19 1   
    30    15    35 1   
    31    16    17 2   
    32    16    18 1   
    33    18    36 1   
    34    18    37 1   
    35    19    20 1   
    36    19    38 1   
    37    19    39 1   
    38    20    21 1   
    39    20    40 1   
    40    20    41 1   
    41    21    22 1   
    42    21    42 1   
    43    21    43 1   
    44    22    23 1   
    45    22    44 1   
    46    22    45 1   
    47    23    46 1   
    48    23    47 1   
@<TRIPOS>SUBSTRUCTURE
     1 3D5         1 TEMP              0 ****  ****    0 ROOT
