@<TRIPOS>MOLECULE
3D6
   47    48     1     0     0
SMALL
No Charge or Current Charge


@<TRIPOS>ATOM
      1 C10          0.9010     1.4310     1.1410 c3         1 3D6       0.208100
      2 C13         -2.6990     1.4040    -0.1880 ca         1 3D6      -0.101500
      3 C15         -4.6030    -0.2680    -0.0020 cp         1 3D6      -0.082000
      4 C17         -6.5790    -0.3400    -1.4210 ca         1 3D6      -0.164000
      5 C20         -5.3400    -1.0640     0.9170 ca         1 3D6       0.343900
      6 C21         -2.3210    -0.6490     1.0480 ca         1 3D6      -0.101500
      7 C22         -1.0030    -0.2420     1.3200 ca         1 3D6      -0.097000
      8 C02          3.6010     2.6860    -0.0520 c          1 3D6       0.561100
      9 C03          3.2790     1.1980     0.3450 c3         1 3D6       0.102500
     10 C04          4.1770     0.2110    -0.4480 c3         1 3D6      -0.066400
     11 C05          4.1170    -1.2510     0.0600 c3         1 3D6      -0.071400
     12 C06          5.0590    -2.2010    -0.7130 c3         1 3D6      -0.080400
     13 C07          4.9920    -3.6560    -0.2040 c3         1 3D6       0.150800
     14 N08          5.9010    -4.5360    -0.9600 n8         1 3D6      -0.996200
     15 N09          1.8390     0.8170     0.1830 n7         1 3D6      -0.859400
     16 C11         -0.5250     0.9910     0.8420 ca         1 3D6      -0.080300
     17 C12         -1.3810     1.8120     0.0850 ca         1 3D6      -0.097000
     18 C14         -3.1980     0.1660     0.2880 cp         1 3D6      -0.034000
     19 C16         -5.2610     0.0940    -1.2030 ca         1 3D6      -0.066000
     20 C18         -7.2140    -1.1230    -0.4440 ca         1 3D6       0.334900
     21 N19         -6.6130    -1.4830     0.7110 nb         1 3D6      -0.666000
     22 H1           1.1580     1.1380     2.1680 h1         1 3D6       0.040200
     23 H2           0.9550     2.5270     1.0920 h1         1 3D6       0.040200
     24 H3          -3.3410     2.0660    -0.7630 ha         1 3D6       0.114000
     25 H4          -7.1050    -0.0800    -2.3350 ha         1 3D6       0.123000
     26 H5          -4.8960    -1.3650     1.8650 h4         1 3D6       0.020100
     27 H6          -2.6570    -1.6130     1.4210 ha         1 3D6       0.114000
     28 H7          -0.3490    -0.8890     1.9000 ha         1 3D6       0.120500
     29 H8           5.3430     2.6560     1.0440 hn         1 3D6       0.313500
     30 H9           4.9910     4.1630     0.2220 hn         1 3D6       0.313500
     31 H10          3.5600     1.1020     1.4030 h1         1 3D6       0.059700
     32 H11          3.9010     0.2420    -1.5100 hc         1 3D6       0.049200
     33 H12          5.2180     0.5520    -0.3880 hc         1 3D6       0.049200
     34 H13          4.3780    -1.2730     1.1250 hc         1 3D6       0.045700
     35 H14          3.0890    -1.6260    -0.0240 hc         1 3D6       0.045700
     36 H15          4.7970    -2.1780    -1.7780 hc         1 3D6       0.045200
     37 H16          6.0900    -1.8340    -0.6260 hc         1 3D6       0.045200
     38 H17          5.2700    -3.6900     0.8580 h1         1 3D6       0.026200
     39 H18          3.9660    -4.0370    -0.3080 h1         1 3D6       0.026200
     40 H19          6.8690    -4.2340    -0.7980 hn         1 3D6       0.391000
     41 H20          5.8710    -5.4780    -0.5490 hn         1 3D6       0.391000
     42 H22          1.5430     1.0990    -0.7610 hn         1 3D6       0.438000
     43 H24         -1.0270     2.7690    -0.2910 ha         1 3D6       0.120500
     44 H25         -4.7560     0.6890    -1.9610 ha         1 3D6       0.121000
     45 H26         -8.2360    -1.4720    -0.5900 h4         1 3D6       0.019100
     46 O23          2.8860     3.3730    -0.7670 o          1 3D6      -0.609100
     47 N01          4.7450     3.2110     0.4490 nt         1 3D6      -0.604000
@<TRIPOS>BOND
     1     1    15 1   
     2     1    16 1   
     3     1    22 1   
     4     1    23 1   
     5     2    17 ar  
     6     2    18 ar  
     7     2    24 1   
     8     3     5 ar  
     9     3    18 1   
    10     3    19 ar  
    11     4    19 ar  
    12     4    20 ar  
    13     4    25 1   
    14     5    21 ar  
    15     5    26 1   
    16     6     7 ar  
    17     6    18 ar  
    18     6    27 1   
    19     7    16 ar  
    20     7    28 1   
    21     8     9 1   
    22     8    46 2   
    23     8    47 1   
    24     9    10 1   
    25     9    15 1   
    26     9    31 1   
    27    10    11 1   
    28    10    32 1   
    29    10    33 1   
    30    11    12 1   
    31    11    34 1   
    32    11    35 1   
    33    12    13 1   
    34    12    36 1   
    35    12    37 1   
    36    13    14 1   
    37    13    38 1   
    38    13    39 1   
    39    14    40 1   
    40    14    41 1   
    41    15    42 1   
    42    16    17 ar  
    43    17    43 1   
    44    19    44 1   
    45    20    21 ar  
    46    20    45 1   
    47    29    47 1   
    48    30    47 1   
@<TRIPOS>SUBSTRUCTURE
     1 3D6         1 TEMP              0 ****  ****    0 ROOT
