@<TRIPOS>MOLECULE
3D6
   47    48     1     0     0
SMALL
abcg2


@<TRIPOS>ATOM
      1 C10          0.9360     1.6790     0.6590 c3         1 3D6       0.208100
      2 C13         -2.8260     1.5580     0.1380 ca         1 3D6      -0.101500
      3 C15         -4.4680    -0.3160     0.0050 cp         1 3D6      -0.082000
      4 C17         -6.6730    -0.2330    -0.9370 ca         1 3D6      -0.164000
      5 C20         -4.9070    -1.4280     0.7260 ca         1 3D6       0.343900
      6 C21         -2.0150    -0.6870     0.3040 ca         1 3D6      -0.101500
      7 C22         -0.7230    -0.2100     0.4490 ca         1 3D6      -0.097000
      8 C02          3.7120     2.5840    -0.1810 c          1 3D6       0.561100
      9 C03          3.2880     1.1870     0.2860 c3         1 3D6       0.102500
     10 C04          4.2350     0.1630    -0.3500 c3         1 3D6      -0.066400
     11 C05          4.0090    -1.2580     0.1470 c3         1 3D6      -0.071400
     12 C06          4.9640    -2.2560    -0.4950 c3         1 3D6      -0.080400
     13 C07          4.7420    -3.6790    -0.0080 c3         1 3D6       0.150800
     14 N08          5.6550    -4.6050    -0.6630 n8         1 3D6      -0.996200
     15 N09          1.9170     0.8790    -0.0430 n7         1 3D6      -0.859400
     16 C11         -0.4610     1.1580     0.4480 ca         1 3D6      -0.080300
     17 C12         -1.5300     2.0320     0.2810 ca         1 3D6      -0.097000
     18 C14         -3.0920     0.1900     0.1510 cp         1 3D6      -0.034000
     19 C16         -5.3930     0.2880    -0.8440 ca         1 3D6      -0.066000
     20 C18         -6.9930    -1.3490    -0.1780 ca         1 3D6       0.334900
     21 N19         -6.1280    -1.9350     0.6420 nb         1 3D6      -0.666000
     22 H1           1.1680     1.6260     1.7290 h1         1 3D6       0.040200
     23 H2           0.9640     2.7480     0.4000 h1         1 3D6       0.040200
     24 H3          -3.6380     2.2670     0.0320 ha         1 3D6       0.114000
     25 H4          -7.4080     0.2100    -1.5940 ha         1 3D6       0.123000
     26 H5          -4.2330    -1.9190     1.4220 h4         1 3D6       0.020100
     27 H6          -2.1830    -1.7570     0.2930 ha         1 3D6       0.114000
     28 H7           0.0970    -0.9090     0.5500 ha         1 3D6       0.120500
     29 H8           4.8730     2.8290     1.4960 hn         1 3D6       0.313500
     30 H9           4.9520     4.1200     0.3630 hn         1 3D6       0.313500
     31 H10          3.3930     1.1240     1.3750 h1         1 3D6       0.059700
     32 H11          4.1180     0.2020    -1.4380 hc         1 3D6       0.049200
     33 H12          5.2670     0.4610    -0.1420 hc         1 3D6       0.049200
     34 H13          4.1310    -1.2840     1.2350 hc         1 3D6       0.045700
     35 H14          2.9760    -1.5540    -0.0530 hc         1 3D6       0.045700
     36 H15          4.8520    -2.2280    -1.5840 hc         1 3D6       0.045200
     37 H16          5.9980    -1.9600    -0.2840 hc         1 3D6       0.045200
     38 H17          4.8160    -3.6950     1.0900 h1         1 3D6       0.026200
     39 H18          3.7190    -3.9830    -0.2480 h1         1 3D6       0.026200
     40 H19          6.6020    -4.4060    -0.3650 hn         1 3D6       0.391000
     41 H20          5.4660    -5.5480    -0.3470 hn         1 3D6       0.391000
     42 H22          1.7830     0.9740    -1.0440 hn         1 3D6       0.438000
     43 H24         -1.3540     3.1010     0.2690 ha         1 3D6       0.120500
     44 H25         -5.1140     1.1480    -1.4390 ha         1 3D6       0.121000
     45 H26         -7.9840    -1.7840    -0.2320 h4         1 3D6       0.019100
     46 O23          3.3080     3.0460    -1.2400 o          1 3D6      -0.609100
     47 N01          4.5710     3.2240     0.6220 nt         1 3D6      -0.604000
@<TRIPOS>BOND
     1     1    15 1   
     2     1    16 1   
     3     1    22 1   
     4     1    23 1   
     5     2    17 ar  
     6     2    18 ar  
     7     2    24 1   
     8     3     5 ar  
     9     3    18 1   
    10     3    19 ar  
    11     4    19 ar  
    12     4    20 ar  
    13     4    25 1   
    14     5    21 ar  
    15     5    26 1   
    16     6     7 ar  
    17     6    18 ar  
    18     6    27 1   
    19     7    16 ar  
    20     7    28 1   
    21     8     9 1   
    22     8    46 2   
    23     8    47 1   
    24     9    10 1   
    25     9    15 1   
    26     9    31 1   
    27    10    11 1   
    28    10    32 1   
    29    10    33 1   
    30    11    12 1   
    31    11    34 1   
    32    11    35 1   
    33    12    13 1   
    34    12    36 1   
    35    12    37 1   
    36    13    14 1   
    37    13    38 1   
    38    13    39 1   
    39    14    40 1   
    40    14    41 1   
    41    15    42 1   
    42    16    17 ar  
    43    17    43 1   
    44    19    44 1   
    45    20    21 ar  
    46    20    45 1   
    47    29    47 1   
    48    30    47 1   
@<TRIPOS>SUBSTRUCTURE
     1 3D6         1 TEMP              0 ****  ****    0 ROOT
