@<TRIPOS>MOLECULE
3D7
   24    25     1     0     0
SMALL
No Charge or Current Charge


@<TRIPOS>ATOM
      1 O           -4.1300    -0.8850     0.1180 o          1 3D7      -0.579000
      2 C4          -2.9400    -0.5840     0.1200 c          1 3D7       0.534200
      3 C           -2.3950     0.8150    -0.0700 cc         1 3D7       0.035800
      4 N           -3.3460     1.8050    -0.2570 nv         1 3D7      -0.922000
      5 N1          -1.9680    -1.5370     0.3030 ns         1 3D7      -0.350100
      6 C3          -0.5990    -1.2990     0.3210 cc         1 3D7      -0.097400
      7 C2          -0.1120    -0.0140     0.1460 cd         1 3D7      -0.022200
      8 C1          -1.0380     1.0770    -0.0550 cd         1 3D7      -0.211000
      9 C5           1.3150     0.2050     0.1690 cd         1 3D7      -0.151800
     10 C7           1.9940     1.4330     0.0110 cd         1 3D7       0.252900
     11 N3           3.3040     1.2870     0.0850 nc         1 3D7      -0.523800
     12 N2           3.4550    -0.0730     0.2960 na         1 3D7       0.134800
     13 C8           4.8000    -0.6480     0.4360 c3         1 3D7       0.072900
     14 C6           2.2510    -0.7730     0.3540 cc         1 3D7      -0.170000
     15 H1          -2.3170    -2.4810     0.4310 hn         1 3D7       0.326500
     16 HN1         -4.3390     1.5700    -0.2610 hn         1 3D7       0.460500
     17 HN2         -3.0840     2.7810    -0.3940 hn         1 3D7       0.460500
     18 HA          -0.6830     2.0920    -0.1950 ha         1 3D7       0.187000
     19 H3          -0.0130    -2.1980     0.4800 h4         1 3D7       0.199000
     20 H7           1.5800     2.4200    -0.1550 h4         1 3D7       0.040100
     21 H6           2.1910    -1.8420     0.5130 h4         1 3D7       0.151000
     22 H81C         5.3080    -0.1880     1.2930 h1         1 3D7       0.056700
     23 H82C         4.7260    -1.7300     0.5980 h1         1 3D7       0.056700
     24 H83C         5.3770    -0.4570    -0.4760 h1         1 3D7       0.056700
@<TRIPOS>BOND
     1     1     2 2   
     2     2     3 1   
     3     2     5 1   
     4     3     4 1   
     5     3     8 2   
     6     4    16 1   
     7     4    17 1   
     8     5     6 1   
     9     5    15 1   
    10     6     7 2   
    11     6    19 1   
    12     7     8 1   
    13     7     9 1   
    14     8    18 1   
    15     9    10 1   
    16     9    14 2   
    17    10    11 2   
    18    10    20 1   
    19    11    12 1   
    20    12    13 1   
    21    12    14 1   
    22    13    22 1   
    23    13    23 1   
    24    13    24 1   
    25    14    21 1   
@<TRIPOS>SUBSTRUCTURE
     1 3D7         1 TEMP              0 ****  ****    0 ROOT
