@<TRIPOS>MOLECULE
3D7
   24    25     1     0     0
SMALL
bcc


@<TRIPOS>ATOM
      1 O           -4.1620    -0.7710     0.0600 o          1 3D7      -0.654500
      2 C4          -2.9540    -0.5290     0.0380 c          1 3D7       0.676700
      3 C           -2.4050     0.8210     0.0050 cc         1 3D7       0.035800
      4 N           -3.3260     1.8350    -0.0710 nv         1 3D7      -0.811600
      5 N1          -2.0170    -1.5180     0.0510 ns         1 3D7      -0.417100
      6 C3          -0.6650    -1.3430     0.0350 cc         1 3D7      -0.047400
      7 C2          -0.1410    -0.0900     0.0270 cd         1 3D7      -0.022200
      8 C1          -1.0520     1.0060     0.0160 cd         1 3D7      -0.161000
      9 C5           1.3010     0.1360     0.0320 cd         1 3D7      -0.217100
     10 C7           2.0110     1.2490    -0.4600 cd         1 3D7       0.318200
     11 N3           3.3130     1.1070    -0.2970 nc         1 3D7      -0.523800
     12 N2           3.4680    -0.0730     0.2890 na         1 3D7       0.113400
     13 C8           4.7860    -0.5350     0.6540 c3         1 3D7       0.043600
     14 C6           2.2970    -0.6920     0.5140 cc         1 3D7      -0.137300
     15 H1          -2.3690    -2.4650     0.0660 hn         1 3D7       0.326500
     16 HN1         -4.2380     1.6150     0.2960 hn         1 3D7       0.405300
     17 HN2         -3.0040     2.7480     0.2060 hn         1 3D7       0.405300
     18 HA          -0.6610     2.0170     0.0230 ha         1 3D7       0.137000
     19 H3          -0.0750    -2.2470     0.0200 h4         1 3D7       0.149000
     20 H7           1.6170     2.1360    -0.9350 h4         1 3D7       0.040100
     21 H6           2.2480    -1.6520     1.0030 h4         1 3D7       0.169000
     22 H81C         5.2070     0.0890     1.4400 h1         1 3D7       0.056700
     23 H82C         4.7160    -1.5580     1.0130 h1         1 3D7       0.056700
     24 H83C         5.4420    -0.5100    -0.2130 h1         1 3D7       0.056700
@<TRIPOS>BOND
     1     1     2 2   
     2     2     3 1   
     3     2     5 1   
     4     3     4 1   
     5     3     8 2   
     6     4    16 1   
     7     4    17 1   
     8     5     6 1   
     9     5    15 1   
    10     6     7 2   
    11     6    19 1   
    12     7     8 1   
    13     7     9 1   
    14     8    18 1   
    15     9    10 1   
    16     9    14 2   
    17    10    11 2   
    18    10    20 1   
    19    11    12 1   
    20    12    13 1   
    21    12    14 1   
    22    13    22 1   
    23    13    23 1   
    24    13    24 1   
    25    14    21 1   
@<TRIPOS>SUBSTRUCTURE
     1 3D7         1 TEMP              0 ****  ****    0 ROOT
