@<TRIPOS>MOLECULE
3D8
   25    27     1     0     0
SMALL
No Charge or Current Charge


@<TRIPOS>ATOM
      1 C4          -2.8330    -1.4040    -0.3240 ca         1 3D8       0.288900
      2 C6          -4.6780    -0.0890     0.1610 ca         1 3D8       0.308900
      3 C11          3.7310    -1.6180     0.2290 cc         1 3D8      -0.243000
      4 C8           0.5910     0.2020    -0.0840 cd         1 3D8       0.445900
      5 C9           1.8780    -0.3680     0.0190 cd         1 3D8      -0.269000
      6 C10          2.3050    -1.6600     0.1960 cc         1 3D8      -0.198000
      7 C12          4.1710    -0.3140     0.0740 cd         1 3D8      -0.168100
      8 C3          -1.9100    -0.3790     0.0330 ca         1 3D8       0.246000
      9 C1          -3.8550     0.9810     0.5510 ca         1 3D8      -0.138000
     10 C2          -2.4550     0.8390     0.4910 ca         1 3D8      -0.090000
     11 N5          -4.1840    -1.2720    -0.2690 nb         1 3D8      -0.642000
     12 N7          -0.5130    -0.6050    -0.0440 nu         1 3D8      -0.913900
     13 N13          2.9940     0.4100    -0.0490 na         1 3D8       0.282900
     14 N14          2.9460     1.7710    -0.2260 nd         1 3D8      -0.283800
     15 C15          1.6780     2.2110    -0.3220 cc         1 3D8       0.127900
     16 N16          0.4770     1.5060    -0.2680 nc         1 3D8      -0.289000
     17 H1          -2.4690    -2.3700    -0.6740 h4         1 3D8       0.013100
     18 H2          -5.7630     0.0000     0.2010 h4         1 3D8       0.023100
     19 H4           1.6990    -2.5600     0.3010 ha         1 3D8       0.202000
     20 H5           5.1590     0.1330     0.0430 h4         1 3D8       0.236000
     21 H6          -4.3020     1.9080     0.9000 ha         1 3D8       0.126000
     22 H7          -1.8210     1.6560     0.8150 ha         1 3D8       0.160000
     23 H8          -0.2500    -1.5840    -0.1450 hn         1 3D8       0.507000
     24 H9           1.5270     3.2730    -0.4680 h5         1 3D8       0.057100
     25 H3           4.3680    -2.4930     0.3590 ha         1 3D8       0.209000
@<TRIPOS>BOND
     1     1     8 ar  
     2     1    11 ar  
     3     1    17 1   
     4     2     9 ar  
     5     2    11 ar  
     6     2    18 1   
     7     3     6 1   
     8     3     7 2   
     9     3    25 1   
    10     4     5 1   
    11     4    12 1   
    12     4    16 2   
    13     5     6 2   
    14     5    13 1   
    15     6    19 1   
    16     7    13 1   
    17     7    20 1   
    18     8    10 ar  
    19     8    12 1   
    20     9    10 ar  
    21     9    21 1   
    22    10    22 1   
    23    12    23 1   
    24    13    14 1   
    25    14    15 2   
    26    15    16 1   
    27    15    24 1   
@<TRIPOS>SUBSTRUCTURE
     1 3D8         1 TEMP              0 ****  ****    0 ROOT
