@<TRIPOS>MOLECULE
3D8
   25    27     1     0     0
SMALL
bcc


@<TRIPOS>ATOM
      1 C4          -2.7760    -1.4220     0.0790 ca         1 3D8       0.354200
      2 C6          -4.5980    -0.0690     0.1740 ca         1 3D8       0.374200
      3 C11          3.7480    -1.6260    -0.0500 cc         1 3D8      -0.193000
      4 C8           0.5550     0.1500     0.0380 cd         1 3D8       0.774200
      5 C9           1.8400    -0.4640     0.0040 cd         1 3D8      -0.283600
      6 C10          2.3510    -1.7500    -0.0310 cc         1 3D8      -0.148000
      7 C12          4.0660    -0.2810    -0.0260 cd         1 3D8      -0.118100
      8 C3          -1.8830    -0.3440     0.0850 ca         1 3D8       0.042300
      9 C1          -3.8040     1.0640     0.1820 ca         1 3D8      -0.221300
     10 C2          -2.4240     0.9390     0.1370 ca         1 3D8      -0.108000
     11 N5          -4.0870    -1.2940     0.1220 nb         1 3D8      -0.642000
     12 N7          -0.5280    -0.6570     0.0400 nu         1 3D8      -0.720300
     13 N13          2.9100     0.4090     0.0060 na         1 3D8       0.232200
     14 N14          2.8020     1.7480     0.0400 nd         1 3D8      -0.546800
     15 C15          1.5820     2.1720     0.0670 cc         1 3D8       0.653900
     16 N16          0.4400     1.4530     0.0680 nc         1 3D8      -0.815000
     17 H1          -2.3920    -2.4380     0.0360 h4         1 3D8       0.013100
     18 H2          -5.6780     0.0100     0.2110 h4         1 3D8       0.023100
     19 H4           1.7940    -2.6740    -0.0430 ha         1 3D8       0.152000
     20 H5           5.0160     0.2250    -0.0280 h4         1 3D8       0.186000
     21 H6          -4.2560     2.0450     0.2260 ha         1 3D8       0.144000
     22 H7          -1.7870     1.8080     0.1410 ha         1 3D8       0.178000
     23 H8          -0.3310    -1.6440     0.0070 hn         1 3D8       0.451800
     24 H9           1.4690     3.2480     0.0920 h5         1 3D8       0.057100
     25 H3           4.4610    -2.4330    -0.0780 ha         1 3D8       0.159000
@<TRIPOS>BOND
     1     1     8 ar  
     2     1    11 ar  
     3     1    17 1   
     4     2     9 ar  
     5     2    11 ar  
     6     2    18 1   
     7     3     6 1   
     8     3     7 2   
     9     3    25 1   
    10     4     5 1   
    11     4    12 1   
    12     4    16 2   
    13     5     6 2   
    14     5    13 1   
    15     6    19 1   
    16     7    13 1   
    17     7    20 1   
    18     8    10 ar  
    19     8    12 1   
    20     9    10 ar  
    21     9    21 1   
    22    10    22 1   
    23    12    23 1   
    24    13    14 1   
    25    14    15 2   
    26    15    16 1   
    27    15    24 1   
@<TRIPOS>SUBSTRUCTURE
     1 3D8         1 TEMP              0 ****  ****    0 ROOT
