@<TRIPOS>MOLECULE
3D9
   35    38     1     0     0
SMALL
No Charge or Current Charge


@<TRIPOS>ATOM
      1 C4           3.6080    -0.3080    -0.0100 ca         1 3D9      -0.008800
      2 C5           3.6930    -1.7180    -0.0230 ca         1 3D9      -0.105500
      3 C6           4.9400    -2.3670    -0.0580 ca         1 3D9      -0.107000
      4 C7           2.2890     0.3480     0.0270 cc         1 3D9      -0.083200
      5 C8           0.9890    -0.2510     0.0540 cc         1 3D9      -0.185000
      6 C9           0.0760     0.7730     0.0820 cd         1 3D9      -0.270000
      7 C10         -1.3340     0.7880     0.1100 cd         1 3D9       0.445900
      8 C12         -1.1430     3.0770     0.1280 cc         1 3D9       0.129900
      9 C3           4.8120     0.4350    -0.0330 ca         1 3D9      -0.105500
     10 C1           6.1240    -1.6150    -0.0810 ca         1 3D9      -0.110000
     11 C2           6.0590    -0.2140    -0.0680 ca         1 3D9      -0.107000
     12 N11         -1.9640     1.9500     0.1440 nc         1 3D9      -0.281000
     13 N13          0.1980     3.1700     0.0920 nd         1 3D9      -0.282800
     14 N14          0.7900     1.9310     0.0700 na         1 3D9       0.287900
     15 C15          2.1600     1.7300     0.0380 cd         1 3D9      -0.154100
     16 N16         -2.0250    -0.3910     0.1530 nu         1 3D9      -0.918900
     17 C17         -3.3700    -0.7480     0.0340 ca         1 3D9       0.337000
     18 C18         -4.3350     0.0810    -0.5520 ca         1 3D9      -0.202500
     19 C19         -5.6580    -0.3690    -0.6390 ca         1 3D9       0.356400
     20 N20         -6.0540    -1.5790    -0.1860 nb         1 3D9      -0.676000
     21 C21         -5.1170    -2.3800     0.3670 ca         1 3D9       0.356400
     22 C22         -3.7740    -2.0060     0.4900 ca         1 3D9      -0.202500
     23 H1           2.7930    -2.3260    -0.0060 ha         1 3D9       0.108500
     24 H2           4.9860    -3.4540    -0.0680 ha         1 3D9       0.112500
     25 H3           0.7830    -1.3180     0.0460 ha         1 3D9       0.202000
     26 H4          -1.7080     4.0000     0.1510 h5         1 3D9       0.060100
     27 H5           4.8010     1.5210    -0.0240 ha         1 3D9       0.108500
     28 H6           7.0890    -2.1170    -0.1080 ha         1 3D9       0.113000
     29 H7           6.9750     0.3710    -0.0850 ha         1 3D9       0.112500
     30 H8           2.8710     2.5450     0.0250 h4         1 3D9       0.239000
     31 H9          -1.4080    -1.1710     0.3650 hn         1 3D9       0.507000
     32 H10         -4.0840     1.0530    -0.9560 ha         1 3D9       0.140500
     33 H11         -6.4270     0.2560    -1.0910 h4         1 3D9       0.020600
     34 H12         -5.4570    -3.3520     0.7210 h4         1 3D9       0.020600
     35 H13         -3.0660    -2.6910     0.9440 ha         1 3D9       0.140500
@<TRIPOS>BOND
     1     1     2 ar  
     2     1     4 1   
     3     1     9 ar  
     4     2     3 ar  
     5     2    23 1   
     6     3    10 ar  
     7     3    24 1   
     8     4     5 1   
     9     4    15 2   
    10     5     6 2   
    11     5    25 1   
    12     6     7 1   
    13     6    14 1   
    14     7    12 2   
    15     7    16 1   
    16     8    12 1   
    17     8    13 2   
    18     8    26 1   
    19     9    11 ar  
    20     9    27 1   
    21    10    11 ar  
    22    10    28 1   
    23    11    29 1   
    24    13    14 1   
    25    14    15 1   
    26    15    30 1   
    27    16    17 1   
    28    16    31 1   
    29    17    18 ar  
    30    17    22 ar  
    31    18    19 ar  
    32    18    32 1   
    33    19    20 ar  
    34    19    33 1   
    35    20    21 ar  
    36    21    22 ar  
    37    21    34 1   
    38    22    35 1   
@<TRIPOS>SUBSTRUCTURE
     1 3D9         1 TEMP              0 ****  ****    0 ROOT
