@<TRIPOS>MOLECULE
3D9
   35    38     1     0     0
SMALL
bcc


@<TRIPOS>ATOM
      1 C4           3.6290    -0.3260     0.0300 ca         1 3D9      -0.008800
      2 C5           3.7490    -1.7140     0.1340 ca         1 3D9      -0.123500
      3 C6           4.9940    -2.3210     0.1710 ca         1 3D9      -0.125000
      4 C7           2.3110     0.3130    -0.0080 cc         1 3D9      -0.083200
      5 C8           1.0600    -0.3340     0.0090 cc         1 3D9      -0.135000
      6 C9           0.0920     0.6500    -0.0370 cd         1 3D9      -0.284600
      7 C10         -1.3300     0.7130    -0.0470 cd         1 3D9       0.774200
      8 C12         -1.1730     2.9770    -0.1420 cc         1 3D9       0.655900
      9 C3           4.8010     0.4320    -0.0360 ca         1 3D9      -0.123500
     10 C1           6.1510    -1.5560     0.1060 ca         1 3D9      -0.128000
     11 C2           6.0470    -0.1750     0.0020 ca         1 3D9      -0.125000
     12 N11         -1.9440     1.8680    -0.1010 nc         1 3D9      -0.807000
     13 N13          0.1170     3.0590    -0.1350 nd         1 3D9      -0.545800
     14 N14          0.7390     1.8690    -0.0810 na         1 3D9       0.237200
     15 C15          2.0700     1.6830    -0.0640 cd         1 3D9      -0.104100
     16 N16         -2.0050    -0.4590     0.0030 nu         1 3D9      -0.725300
     17 C17         -3.3660    -0.7170     0.0000 ca         1 3D9       0.198600
     18 C18         -4.3750     0.2420    -0.0850 ca         1 3D9      -0.285800
     19 C19         -5.6910    -0.1930    -0.0790 ca         1 3D9       0.421700
     20 N20         -6.0720    -1.4620     0.0020 nb         1 3D9      -0.676000
     21 C21         -5.1010    -2.3670     0.0830 ca         1 3D9       0.421700
     22 C22         -3.7560    -2.0570     0.0860 ca         1 3D9      -0.285800
     23 H1           2.8640    -2.3350     0.1890 ha         1 3D9       0.126500
     24 H2           5.0600    -3.3990     0.2510 ha         1 3D9       0.130500
     25 H3           0.8850    -1.3980     0.0460 ha         1 3D9       0.152000
     26 H4          -1.6970     3.9240    -0.1870 h5         1 3D9       0.060100
     27 H5           4.7480     1.5100    -0.1190 ha         1 3D9       0.126500
     28 H6           7.1230    -2.0310     0.1370 ha         1 3D9       0.131000
     29 H7           6.9390     0.4360    -0.0510 ha         1 3D9       0.130500
     30 H8           2.7410     2.5250    -0.0890 h4         1 3D9       0.189000
     31 H9          -1.4290    -1.2850     0.0600 hn         1 3D9       0.451800
     32 H10         -4.1570     1.2940    -0.1520 ha         1 3D9       0.158500
     33 H11         -6.4830     0.5450    -0.1470 h4         1 3D9       0.020600
     34 H12         -5.4060    -3.4060     0.1510 h4         1 3D9       0.020600
     35 H13         -3.0210    -2.8490     0.1540 ha         1 3D9       0.158500
@<TRIPOS>BOND
     1     1     2 ar  
     2     1     4 1   
     3     1     9 ar  
     4     2     3 ar  
     5     2    23 1   
     6     3    10 ar  
     7     3    24 1   
     8     4     5 1   
     9     4    15 2   
    10     5     6 2   
    11     5    25 1   
    12     6     7 1   
    13     6    14 1   
    14     7    12 2   
    15     7    16 1   
    16     8    12 1   
    17     8    13 2   
    18     8    26 1   
    19     9    11 ar  
    20     9    27 1   
    21    10    11 ar  
    22    10    28 1   
    23    11    29 1   
    24    13    14 1   
    25    14    15 1   
    26    15    30 1   
    27    16    17 1   
    28    16    31 1   
    29    17    18 ar  
    30    17    22 ar  
    31    18    19 ar  
    32    18    32 1   
    33    19    20 ar  
    34    19    33 1   
    35    20    21 ar  
    36    21    22 ar  
    37    21    34 1   
    38    22    35 1   
@<TRIPOS>SUBSTRUCTURE
     1 3D9         1 TEMP              0 ****  ****    0 ROOT
