@<TRIPOS>MOLECULE
3DB
   27    28     1     0     0
SMALL
No Charge or Current Charge


@<TRIPOS>ATOM
      1 C1          -2.9360    -0.4030     1.2500 ca         1 3DB      -0.002000
      2 C2          -2.9660    -1.6930     1.8070 ca         1 3DB      -0.130500
      3 C3          -2.9140    -2.8240     0.9750 ca         1 3DB      -0.047000
      4 C4          -2.8320    -2.6660    -0.4190 ca         1 3DB      -0.130500
      5 C5          -2.8020    -1.3800    -0.9840 ca         1 3DB      -0.002000
      6 C6          -2.8530    -0.2420    -0.1500 ca         1 3DB      -0.302500
      7 S1          -2.7900     1.4090    -0.8630 sy         1 3DB       1.185600
      8 O1          -3.0350     1.3620    -2.3060 o          1 3DB      -0.515500
      9 O2          -3.4720     2.3550     0.0200 o          1 3DB      -0.515500
     10 N1          -1.2080     1.8880    -0.7290 nu         1 3DB      -0.860000
     11 C7          -0.2010     0.9890    -0.7210 cc         1 3DB       0.688300
     12 S2           0.9380     0.8760     0.5780 ss         1 3DB      -0.164800
     13 N2           0.0170     0.1850    -1.7450 nd         1 3DB      -0.406000
     14 N3           1.1150    -0.6310    -1.5330 nd         1 3DB      -0.172000
     15 C8           1.6930    -0.3920    -0.3600 cc         1 3DB       0.169300
     16 S3           3.1670    -1.2860     0.2340 sy         1 3DB       1.140200
     17 O3           3.2490    -1.2380     1.6940 o          1 3DB      -0.527000
     18 O4           3.3630    -2.5300    -0.5100 o          1 3DB      -0.527000
     19 N4           4.4450    -0.3650    -0.2350 n8         1 3DB      -1.064100
     20 H1          -2.9750     0.4640     1.9090 ha         1 3DB       0.141000
     21 H2          -3.0290    -1.8160     2.8850 ha         1 3DB       0.123500
     22 H3          -2.9360    -3.8220     1.4100 ha         1 3DB       0.119000
     23 H4          -2.7910    -3.5420    -1.0620 ha         1 3DB       0.123500
     24 H5          -2.7320    -1.2750    -2.0660 ha         1 3DB       0.141000
     25 HN1         -1.2150     2.4750     0.0890 hn         1 3DB       0.528000
     26 HN4          4.9950    -1.0630    -0.7340 hn         1 3DB       0.503500
     27 HN4A         4.9500    -0.2970     0.6480 hn         1 3DB       0.503500
@<TRIPOS>BOND
     1     1     2 ar  
     2     1     6 ar  
     3     1    20 1   
     4     2     3 ar  
     5     2    21 1   
     6     3     4 ar  
     7     3    22 1   
     8     4     5 ar  
     9     4    23 1   
    10     5     6 ar  
    11     5    24 1   
    12     6     7 1   
    13     7     8 2   
    14     7     9 2   
    15     7    10 1   
    16    10    11 1   
    17    10    25 1   
    18    11    12 1   
    19    11    13 2   
    20    12    15 1   
    21    13    14 1   
    22    14    15 2   
    23    15    16 1   
    24    16    17 2   
    25    16    18 2   
    26    16    19 1   
    27    19    26 1   
    28    19    27 1   
@<TRIPOS>SUBSTRUCTURE
     1 3DB         1 TEMP              0 ****  ****    0 ROOT
