@<TRIPOS>MOLECULE
3DB
   27    28     1     0     0
SMALL
bcc


@<TRIPOS>ATOM
      1 C1          -3.5620    -0.4160     1.1220 ca         1 3DB      -0.020000
      2 C2          -3.9880    -1.6430     1.6040 ca         1 3DB      -0.148500
      3 C3          -3.8390    -2.7860     0.8280 ca         1 3DB      -0.065000
      4 C4          -3.2680    -2.7100    -0.4350 ca         1 3DB      -0.148500
      5 C5          -2.8320    -1.4900    -0.9310 ca         1 3DB      -0.020000
      6 C6          -2.9850    -0.3590    -0.1410 ca         1 3DB      -0.302500
      7 S1          -2.4480     1.2060    -0.7460 sy         1 3DB       1.327200
      8 O1          -2.2090     1.1220    -2.1670 o          1 3DB      -0.586300
      9 O2          -3.2880     2.2520    -0.1990 o          1 3DB      -0.586300
     10 N1          -0.9730     1.4600     0.0340 nu         1 3DB      -0.804800
     11 C7           0.1240     0.6800    -0.1410 cc         1 3DB       0.688300
     12 S2           1.5620     0.9090     0.7930 ss         1 3DB      -0.164800
     13 N2           0.1870    -0.3000    -0.9920 nd         1 3DB      -0.406000
     14 N3           1.3740    -0.9240    -0.9620 nd         1 3DB      -0.172000
     15 C8           2.1880    -0.4170    -0.1130 cc         1 3DB       0.169300
     16 S3           3.8420    -1.0080     0.1310 sy         1 3DB       1.281800
     17 O3           4.1780    -0.5990     1.4800 o          1 3DB      -0.597800
     18 O4           3.8430    -2.3940    -0.2810 o          1 3DB      -0.597800
     19 N4           4.7120    -0.1160    -0.9140 n8         1 3DB      -0.953700
     20 H1          -3.6830     0.4740     1.7240 ha         1 3DB       0.159000
     21 H2          -4.4400    -1.7040     2.5850 ha         1 3DB       0.141500
     22 H3          -4.1680    -3.7420     1.2120 ha         1 3DB       0.137000
     23 H4          -3.1590    -3.6000    -1.0390 ha         1 3DB       0.141500
     24 H5          -2.3810    -1.4290    -1.9110 ha         1 3DB       0.159000
     25 HN1         -0.9830     2.1670     0.7590 hn         1 3DB       0.472800
     26 HN4          5.0600    -0.6100    -1.7260 hn         1 3DB       0.448300
     27 HN4A         5.3820     0.5150    -0.4920 hn         1 3DB       0.448300
@<TRIPOS>BOND
     1     1     2 ar  
     2     1     6 ar  
     3     1    20 1   
     4     2     3 ar  
     5     2    21 1   
     6     3     4 ar  
     7     3    22 1   
     8     4     5 ar  
     9     4    23 1   
    10     5     6 ar  
    11     5    24 1   
    12     6     7 1   
    13     7     8 2   
    14     7     9 2   
    15     7    10 1   
    16    10    11 1   
    17    10    25 1   
    18    11    12 1   
    19    11    13 2   
    20    12    15 1   
    21    13    14 1   
    22    14    15 2   
    23    15    16 1   
    24    16    17 2   
    25    16    18 2   
    26    16    19 1   
    27    19    26 1   
    28    19    27 1   
@<TRIPOS>SUBSTRUCTURE
     1 3DB         1 TEMP              0 ****  ****    0 ROOT
