@<TRIPOS>MOLECULE
3DC
   32    35     1     0     0
SMALL
bcc


@<TRIPOS>ATOM
      1 C4           5.4750     0.0960    -0.1400 ca         1 3DC       0.421700
      2 C5           4.1460    -0.3010    -0.1520 ca         1 3DC      -0.285800
      3 C6           3.1660     0.6840    -0.0290 ca         1 3DC       0.199600
      4 C11         -2.5370    -0.1800     0.0060 cc         1 3DC      -0.036200
      5 C8           1.0870    -0.6820    -0.1020 cd         1 3DC       0.773200
      6 C9          -0.3310    -0.5790    -0.0670 cd         1 3DC      -0.281600
      7 C10         -1.2690     0.4320     0.0220 cc         1 3DC      -0.141000
      8 C12         -2.3390    -1.5530    -0.0940 cd         1 3DC      -0.118100
      9 N3           5.8930     1.3490    -0.0180 nb         1 3DC      -0.677000
     10 C1           3.5970     2.0080     0.1010 ca         1 3DC      -0.285800
     11 C2           4.9500     2.2790     0.1000 ca         1 3DC       0.421700
     12 N7           1.7980     0.4680    -0.0270 nu         1 3DC      -0.725300
     13 N13         -1.0130    -1.7770    -0.1360 na         1 3DC       0.238200
     14 N14         -0.4270    -2.9820    -0.2360 nd         1 3DC      -0.546800
     15 C15          0.8660    -2.9370    -0.2620 cc         1 3DC       0.653900
     16 N16          1.6680    -1.8530    -0.2000 nc         1 3DC      -0.807000
     17 C17         -3.8170     0.4980     0.0780 cc         1 3DC      -0.202100
     18 C18         -5.0780    -0.0570     0.1840 cd         1 3DC      -0.131300
     19 N19         -5.9430     0.9670     0.2170 na         1 3DC      -0.001600
     20 N21         -5.3540     2.1530     0.1410 nd         1 3DC      -0.519800
     21 C22         -4.0650     1.8870     0.0570 cc         1 3DC       0.315200
     22 H1           6.2430    -0.6630    -0.2360 h4         1 3DC       0.019600
     23 H2           3.8960    -1.3430    -0.2560 ha         1 3DC       0.158500
     24 H3          -1.0720     1.4900     0.0950 ha         1 3DC       0.153000
     25 H4          -3.0420    -2.3680    -0.1410 h4         1 3DC       0.185000
     26 H5           2.8860     2.8190     0.2010 ha         1 3DC       0.158500
     27 H6           5.2860     3.3050     0.2010 h4         1 3DC       0.019600
     28 H7           1.2470     1.3080     0.0570 hn         1 3DC       0.452800
     29 H8           1.3600    -3.8970    -0.3440 h5         1 3DC       0.059100
     30 H9          -5.4090    -1.0810     0.2420 h4         1 3DC       0.173000
     31 H20         -6.9460     0.9080     0.2900 hn         1 3DC       0.322700
     32 H10         -3.3470     2.6900    -0.0200 h4         1 3DC       0.036100
@<TRIPOS>BOND
     1     1     2 ar  
     2     1     9 ar  
     3     1    22 1   
     4     2     3 ar  
     5     2    23 1   
     6     3    10 ar  
     7     3    12 1   
     8     4     7 1   
     9     4     8 2   
    10     4    17 1   
    11     5     6 1   
    12     5    12 1   
    13     5    16 2   
    14     6     7 2   
    15     6    13 1   
    16     7    24 1   
    17     8    13 1   
    18     8    25 1   
    19     9    11 ar  
    20    10    11 ar  
    21    10    26 1   
    22    11    27 1   
    23    12    28 1   
    24    13    14 1   
    25    14    15 2   
    26    15    16 1   
    27    15    29 1   
    28    17    18 2   
    29    17    21 1   
    30    18    19 1   
    31    18    30 1   
    32    19    20 1   
    33    19    31 1   
    34    20    21 2   
    35    21    32 1   
@<TRIPOS>SUBSTRUCTURE
     1 3DC         1 TEMP              0 ****  ****    0 ROOT
