@<TRIPOS>MOLECULE
3DC
   32    35     1     0     0
SMALL
No Charge or Current Charge


@<TRIPOS>ATOM
      1 C4           5.4190     0.2770    -0.6940 ca         1 3DC       0.356400
      2 C5           4.0840    -0.1370    -0.6020 ca         1 3DC      -0.202500
      3 C6           3.1460     0.7170    -0.0080 ca         1 3DC       0.338000
      4 C11         -2.5320    -0.2290     0.0190 cc         1 3DC      -0.036200
      5 C8           1.0680    -0.7620     0.0740 cd         1 3DC       0.444900
      6 C9          -0.3410    -0.7070     0.0560 cd         1 3DC      -0.267000
      7 C10         -1.2250     0.3430     0.0390 cc         1 3DC      -0.191000
      8 C12         -2.4530    -1.6090     0.0230 cd         1 3DC      -0.168100
      9 N3           5.8510     1.4740    -0.2420 nb         1 3DC      -0.677000
     10 C1           3.5860     1.9620     0.4480 ca         1 3DC      -0.202500
     11 C2           4.9390     2.2990     0.3180 ca         1 3DC       0.356400
     12 N7           1.7920     0.3970     0.1170 nu         1 3DC      -0.918900
     13 N13         -1.0880    -1.8470     0.0450 na         1 3DC       0.288900
     14 N14         -0.5300    -3.1020     0.0580 nd         1 3DC      -0.283800
     15 C15          0.8130    -3.0450     0.0850 cc         1 3DC       0.127900
     16 N16          1.6650    -1.9420     0.1000 nc         1 3DC      -0.281000
     17 C17         -3.7640     0.5030    -0.0050 cc         1 3DC      -0.136800
     18 C18         -5.0110    -0.0440    -0.0250 cd         1 3DC      -0.164000
     19 N19         -5.8730     1.0640    -0.0430 na         1 3DC      -0.001200
     20 N21         -5.1840     2.2820    -0.0340 nd         1 3DC      -0.519800
     21 C22         -3.9220     1.8970    -0.0120 cc         1 3DC       0.249900
     22 H1           6.1680    -0.3680    -1.1520 h4         1 3DC       0.019600
     23 H2           3.8050    -1.1010    -1.0070 ha         1 3DC       0.140500
     24 H3          -1.0030     1.4080     0.0340 ha         1 3DC       0.203000
     25 H4          -3.2010    -2.3900     0.0130 h4         1 3DC       0.235000
     26 H5           2.9010     2.6660     0.9070 ha         1 3DC       0.140500
     27 H6           5.3080     3.2610     0.6730 h4         1 3DC       0.019600
     28 H7           1.1980     1.1930     0.3340 hn         1 3DC       0.508000
     29 H8           1.3530    -3.9840     0.1010 h5         1 3DC       0.059100
     30 H9          -5.3530    -1.0730    -0.0270 h4         1 3DC       0.155000
     31 H20         -6.8930     1.0300    -0.0600 hn         1 3DC       0.373000
     32 H10         -3.1460     2.6510    -0.0000 h4         1 3DC       0.036100
@<TRIPOS>BOND
     1     1     2 ar  
     2     1     9 ar  
     3     1    22 1   
     4     2     3 ar  
     5     2    23 1   
     6     3    10 ar  
     7     3    12 1   
     8     4     7 1   
     9     4     8 2   
    10     4    17 1   
    11     5     6 1   
    12     5    12 1   
    13     5    16 2   
    14     6     7 2   
    15     6    13 1   
    16     7    24 1   
    17     8    13 1   
    18     8    25 1   
    19     9    11 ar  
    20    10    11 ar  
    21    10    26 1   
    22    11    27 1   
    23    12    28 1   
    24    13    14 1   
    25    14    15 2   
    26    15    16 1   
    27    15    29 1   
    28    17    18 2   
    29    17    21 1   
    30    18    19 1   
    31    18    30 1   
    32    19    20 1   
    33    19    31 1   
    34    20    21 2   
    35    21    32 1   
@<TRIPOS>SUBSTRUCTURE
     1 3DC         1 TEMP              0 ****  ****    0 ROOT
