@<TRIPOS>MOLECULE
3DD
   29    30     1     0     0
SMALL
abcg2


@<TRIPOS>ATOM
      1 N9           0.7390    -0.6100     0.8900 na         1 3DD      -0.147600
      2 C8           1.2930    -1.8460     0.7510 cc         1 3DD       0.429700
      3 N7           2.4870    -1.8260     0.2350 nd         1 3DD      -0.596100
      4 C5           2.7330    -0.4950     0.0040 ca         1 3DD      -0.046600
      5 C6           3.8660     0.1460    -0.5340 ca         1 3DD       0.649900
      6 N6           4.9320    -0.5700    -0.9760 nv         1 3DD      -1.053900
      7 N1           3.8850     1.4660    -0.6530 nb         1 3DD      -0.792000
      8 C2           2.8180     2.1850    -0.2640 ca         1 3DD       0.369900
      9 C3           1.6580     1.6750     0.2730 ca         1 3DD      -0.200000
     10 C4           1.6490     0.2810     0.4030 ca         1 3DD      -0.024200
     11 C1          -0.6030    -0.3150     1.3440 c3         1 3DD       0.071600
     12 C7          -1.5890    -0.2890     0.1850 c3         1 3DD       0.163300
     13 O2          -1.5650    -1.5480    -0.4330 oh         1 3DD      -0.720000
     14 C9          -3.0050     0.0570     0.6730 c3         1 3DD      -0.019700
     15 O3          -3.0190     1.2860     1.3440 oh         1 3DD      -0.702000
     16 C10         -3.9810     0.0950    -0.5220 c          1 3DD       0.693000
     17 O4A         -3.9630    -0.8860    -1.3010 o          1 3DD      -0.706500
     18 O4B         -4.6920     1.1090    -0.6090 o          1 3DD      -0.706500
     19 H8           0.7630    -2.7330     1.0650 h5         1 3DD       0.065800
     20 HN61         5.7940    -0.0670    -1.1100 hn         1 3DD       0.471000
     21 HN62         5.0380    -1.5120    -0.6370 hn         1 3DD       0.471000
     22 H2           2.9120     3.2570    -0.3960 h4         1 3DD       0.003100
     23 H3           0.8370     2.3140     0.5660 ha         1 3DD       0.134000
     24 H1'1        -0.8920    -1.0770     2.0700 h1         1 3DD       0.063200
     25 H1'2        -0.5900     0.6430     1.8610 h1         1 3DD       0.063200
     26 H4          -1.2720     0.5050    -0.5140 h1         1 3DD       0.038700
     27 HO2         -2.4070    -1.5880    -0.9370 ho         1 3DD       0.512000
     28 H5          -3.3310    -0.7530     1.3470 h1         1 3DD       0.037700
     29 HO3         -3.6920     1.7990     0.8630 ho         1 3DD       0.476000
@<TRIPOS>BOND
     1     1     2 1   
     2     1    10 1   
     3     1    11 1   
     4     2     3 2   
     5     2    19 1   
     6     3     4 1   
     7     4     5 ar  
     8     4    10 ar  
     9     5     6 1   
    10     5     7 ar  
    11     6    20 1   
    12     6    21 1   
    13     7     8 ar  
    14     8     9 ar  
    15     8    22 1   
    16     9    10 ar  
    17     9    23 1   
    18    11    12 1   
    19    11    24 1   
    20    11    25 1   
    21    12    13 1   
    22    12    14 1   
    23    12    26 1   
    24    13    27 1   
    25    14    15 1   
    26    14    16 1   
    27    14    28 1   
    28    15    29 1   
    29    16    17 1   
    30    16    18 1   
@<TRIPOS>SUBSTRUCTURE
     1 3DD         1 TEMP              0 ****  ****    0 ROOT
