@<TRIPOS>MOLECULE
3DD
   29    30     1     0     0
SMALL
No Charge or Current Charge


@<TRIPOS>ATOM
      1 N9           0.7730    -0.7100     0.7920 na         1 3DD      -0.147600
      2 C8           1.3170    -1.9890     0.6530 cc         1 3DD       0.429700
      3 N7           2.5790    -1.9270     0.1640 nd         1 3DD      -0.596100
      4 C5           2.7990    -0.5480    -0.0150 ca         1 3DD      -0.046600
      5 C6           3.9290     0.1570    -0.5040 ca         1 3DD       0.649900
      6 N6           5.0730    -0.4160    -0.9010 nv         1 3DD      -1.053900
      7 N1           3.9910     1.4870    -0.6080 nb         1 3DD      -0.792000
      8 C2           2.8860     2.1870    -0.2280 ca         1 3DD       0.369900
      9 C3           1.7110     1.5780     0.2670 ca         1 3DD      -0.200000
     10 C4           1.7110     0.1800     0.3630 ca         1 3DD      -0.024200
     11 C1          -0.5670    -0.3300     1.2750 c3         1 3DD       0.071600
     12 C7          -1.6490    -0.3380     0.1630 c3         1 3DD       0.163300
     13 O2          -1.7780    -1.6660    -0.3700 oh         1 3DD      -0.720000
     14 C9          -3.0420     0.1570     0.6640 c3         1 3DD      -0.019700
     15 O3          -2.9400     1.5070     1.2000 oh         1 3DD      -0.702000
     16 C10         -4.1490     0.0670    -0.4490 c          1 3DD       0.693000
     17 O4A         -4.1920    -0.9310    -1.1570 o          1 3DD      -0.706500
     18 O4B         -4.8850     1.0350    -0.5920 o          1 3DD      -0.706500
     19 H8           0.7690    -2.8860     0.9180 h5         1 3DD       0.065800
     20 HN61         5.8720     0.2040    -0.9200 hn         1 3DD       0.471000
     21 HN62         5.2310    -1.3630    -0.5760 hn         1 3DD       0.471000
     22 H2           2.9470     3.2700    -0.3210 h4         1 3DD       0.003100
     23 H3           0.8550     2.1800     0.5570 ha         1 3DD       0.134000
     24 H1'1        -0.8640    -1.0250     2.0700 h1         1 3DD       0.063200
     25 H1'2        -0.5080     0.6690     1.7230 h1         1 3DD       0.063200
     26 H4          -1.3200     0.3430    -0.6350 h1         1 3DD       0.038700
     27 HO2         -2.6680    -1.6620    -0.8240 ho         1 3DD       0.512000
     28 H5          -3.3690    -0.5190     1.4660 h1         1 3DD       0.037700
     29 HO3         -3.7110     1.9920     0.8130 ho         1 3DD       0.476000
@<TRIPOS>BOND
     1     1     2 1   
     2     1    10 1   
     3     1    11 1   
     4     2     3 2   
     5     2    19 1   
     6     3     4 1   
     7     4     5 ar  
     8     4    10 ar  
     9     5     6 1   
    10     5     7 ar  
    11     6    20 1   
    12     6    21 1   
    13     7     8 ar  
    14     8     9 ar  
    15     8    22 1   
    16     9    10 ar  
    17     9    23 1   
    18    11    12 1   
    19    11    24 1   
    20    11    25 1   
    21    12    13 1   
    22    12    14 1   
    23    12    26 1   
    24    13    27 1   
    25    14    15 1   
    26    14    16 1   
    27    14    28 1   
    28    15    29 1   
    29    16    17 1   
    30    16    18 1   
@<TRIPOS>SUBSTRUCTURE
     1 3DD         1 TEMP              0 ****  ****    0 ROOT
