@<TRIPOS>MOLECULE
3DE
   35    36     1     0     0
SMALL
No Charge or Current Charge


@<TRIPOS>ATOM
      1 C14          1.6440     0.3250     7.2330 c          1 3DE       0.644700
      2 O15          1.8810    -0.3760     8.3840 os         1 3DE      -0.454100
      3 C16          2.2360     0.3530     9.5710 c3         1 3DE       0.170600
      4 C17          2.4410    -0.6770    10.6930 c3         1 3DE      -0.103100
      5 C10          1.2860    -0.5180     6.0610 cc         1 3DE      -0.266600
      6 C11          1.1830    -1.9350     6.0310 cc         1 3DE       0.108400
      7 N13          0.8430    -2.2960     4.7550 na         1 3DE      -0.198700
      8 C12          1.3650    -2.9140     7.1620 c3         1 3DE      -0.061800
      9 C8           1.0100    -0.0290     4.7990 cd         1 3DE       0.068700
     10 C9           1.0250     1.3970     4.2890 c3         1 3DE      -0.064800
     11 N1           0.7200    -1.1450     3.9880 na         1 3DE       0.089200
     12 C2           1.3920    -1.0820     2.7650 ca         1 3DE      -0.097200
     13 C3           2.7990    -1.1860     2.7040 ca         1 3DE      -0.079000
     14 C4           3.4590    -1.1200     1.4650 ca         1 3DE      -0.089000
     15 C5           2.7200    -0.9540     0.2810 ca         1 3DE      -0.054000
     16 C6           1.3190    -0.8560     0.3370 ca         1 3DE      -0.089000
     17 C7           0.6560    -0.9210     1.5750 ca         1 3DE      -0.079000
     18 O1           1.7250     1.5440     7.1830 o          1 3DE      -0.460000
     19 H161         3.1640     0.9220     9.4210 h1         1 3DE       0.062200
     20 H162         1.4390     1.0530     9.8570 h1         1 3DE       0.062200
     21 H171         2.7150    -0.1720    11.6270 hc         1 3DE       0.056033
     22 H172         1.5200    -1.2470    10.8660 hc         1 3DE       0.056033
     23 H173         3.2430    -1.3780    10.4320 hc         1 3DE       0.056033
     24 H13          0.5170    -3.1780     4.3750 hn         1 3DE       0.419000
     25 H121         2.3810    -2.8580     7.5690 hc         1 3DE       0.094367
     26 H122         0.6570    -2.7110     7.9740 hc         1 3DE       0.094367
     27 H123         1.1990    -3.9440     6.8280 hc         1 3DE       0.094367
     28 H91          0.6400     1.4740     3.2660 hc         1 3DE       0.098700
     29 H92          0.4010     2.0450     4.9150 hc         1 3DE       0.098700
     30 H93          2.0430     1.8030     4.2920 hc         1 3DE       0.098700
     31 H3           3.3820    -1.3140     3.6150 ha         1 3DE       0.139000
     32 H4           4.5440    -1.1980     1.4210 ha         1 3DE       0.148500
     33 H5           3.2310    -0.9040    -0.6790 ha         1 3DE       0.147000
     34 H6           0.7460    -0.7290    -0.5800 ha         1 3DE       0.148500
     35 H7          -0.4290    -0.8440     1.6090 ha         1 3DE       0.139000
@<TRIPOS>BOND
     1     1     2 1   
     2     1     5 1   
     3     1    18 2   
     4     2     3 1   
     5     3     4 1   
     6     3    19 1   
     7     3    20 1   
     8     4    21 1   
     9     4    22 1   
    10     4    23 1   
    11     5     6 1   
    12     5     9 2   
    13     6     7 2   
    14     6     8 1   
    15     7    11 1   
    16     7    24 1   
    17     8    25 1   
    18     8    26 1   
    19     8    27 1   
    20     9    10 1   
    21     9    11 1   
    22    10    28 1   
    23    10    29 1   
    24    10    30 1   
    25    11    12 1   
    26    12    13 ar  
    27    12    17 ar  
    28    13    14 ar  
    29    13    31 1   
    30    14    15 ar  
    31    14    32 1   
    32    15    16 ar  
    33    15    33 1   
    34    16    17 ar  
    35    16    34 1   
    36    17    35 1   
@<TRIPOS>SUBSTRUCTURE
     1 3DE         1 TEMP              0 ****  ****    0 ROOT
