@<TRIPOS>MOLECULE
3DE
   35    36     1     0     0
SMALL
abcg2


@<TRIPOS>ATOM
      1 C14          1.7300     0.4100     7.4150 c          1 3DE       0.644700
      2 O15          1.6840    -0.3180     8.5130 os         1 3DE      -0.454100
      3 C16          1.6730     0.3580     9.7830 c3         1 3DE       0.170600
      4 C17          1.6460    -0.6970    10.8600 c3         1 3DE      -0.103100
      5 C10          1.7260    -0.4250     6.2100 cc         1 3DE      -0.266600
      6 C11          1.6790    -1.8210     6.1170 cc         1 3DE       0.108400
      7 N13          1.6830    -2.1070     4.8250 na         1 3DE      -0.198700
      8 C12          1.6290    -2.8920     7.1380 c3         1 3DE      -0.061800
      9 C8           1.7680     0.0680     4.9020 cd         1 3DE       0.068700
     10 C9           1.8380     1.4560     4.3940 c3         1 3DE      -0.064800
     11 N1           1.7350    -0.9870     4.0890 na         1 3DE       0.089200
     12 C2           1.7820    -1.0480     2.6650 ca         1 3DE      -0.097200
     13 C3           2.9830    -1.3640     2.0500 ca         1 3DE      -0.079000
     14 C4           3.0230    -1.4300     0.6660 ca         1 3DE      -0.089000
     15 C5           1.8770    -1.1730    -0.0760 ca         1 3DE      -0.054000
     16 C6           0.6840    -0.8520     0.5580 ca         1 3DE      -0.089000
     17 C7           0.6270    -0.7930     1.9430 ca         1 3DE      -0.079000
     18 O1           1.7670     1.6160     7.3870 o          1 3DE      -0.460000
     19 H161         2.5610     0.9860     9.8680 h1         1 3DE       0.062200
     20 H162         0.7950     1.0040     9.8410 h1         1 3DE       0.062200
     21 H171         1.6330    -0.2100    11.8350 hc         1 3DE       0.056033
     22 H172         0.7570    -1.3220    10.7860 hc         1 3DE       0.056033
     23 H173         2.5280    -1.3360    10.8160 hc         1 3DE       0.056033
     24 H13          1.6350    -3.0130     4.3780 hn         1 3DE       0.419000
     25 H121         2.5080    -2.8440     7.7770 hc         1 3DE       0.094367
     26 H122         0.7520    -2.7740     7.7700 hc         1 3DE       0.094367
     27 H123         1.5930    -3.8730     6.6710 hc         1 3DE       0.094367
     28 H91          1.8890     1.4820     3.3080 hc         1 3DE       0.098700
     29 H92          0.9610     2.0140     4.7150 hc         1 3DE       0.098700
     30 H93          2.7150     1.9590     4.7950 hc         1 3DE       0.098700
     31 H3           3.8670    -1.5520     2.6450 ha         1 3DE       0.139000
     32 H4           3.9510    -1.6760     0.1680 ha         1 3DE       0.148500
     33 H5           1.9150    -1.2200    -1.1560 ha         1 3DE       0.147000
     34 H6          -0.2040    -0.6490    -0.0250 ha         1 3DE       0.148500
     35 H7          -0.2940    -0.5450     2.4540 ha         1 3DE       0.139000
@<TRIPOS>BOND
     1     1     2 1   
     2     1     5 1   
     3     1    18 2   
     4     2     3 1   
     5     3     4 1   
     6     3    19 1   
     7     3    20 1   
     8     4    21 1   
     9     4    22 1   
    10     4    23 1   
    11     5     6 1   
    12     5     9 2   
    13     6     7 2   
    14     6     8 1   
    15     7    11 1   
    16     7    24 1   
    17     8    25 1   
    18     8    26 1   
    19     8    27 1   
    20     9    10 1   
    21     9    11 1   
    22    10    28 1   
    23    10    29 1   
    24    10    30 1   
    25    11    12 1   
    26    12    13 ar  
    27    12    17 ar  
    28    13    14 ar  
    29    13    31 1   
    30    14    15 ar  
    31    14    32 1   
    32    15    16 ar  
    33    15    33 1   
    34    16    17 ar  
    35    16    34 1   
    36    17    35 1   
@<TRIPOS>SUBSTRUCTURE
     1 3DE         1 TEMP              0 ****  ****    0 ROOT
