@<TRIPOS>MOLECULE
3DG
   32    34     1     0     0
SMALL
abcg2


@<TRIPOS>ATOM
      1 N9           0.2780    -0.2000    -0.3610 na         1 3DG      -0.202500
      2 C1           1.2580     0.8640    -0.5570 c5         1 3DG       0.319300
      3 C2           1.5180     1.6250     0.7480 c5         1 3DG       0.130300
      4 C3           2.6680     0.8170     1.3300 c5         1 3DG      -0.158400
      5 C4           3.4590     0.4470     0.0850 c5         1 3DG       0.163300
      6 O4           2.4720     0.3140    -0.9510 os         1 3DG      -0.429000
      7 C5           4.2590    -0.8230     0.2270 c3         1 3DG       0.160600
      8 O5           4.9790    -1.0530    -0.9590 oh         1 3DG      -0.703000
      9 O2           1.9060     2.9250     0.3770 oh         1 3DG      -0.706000
     10 C8           0.4870    -1.5440    -0.1790 cc         1 3DG       0.408400
     11 N7          -0.6170    -2.2100    -0.0240 nd         1 3DG      -0.601000
     12 C10         -1.6070    -1.2660    -0.1060 cd         1 3DG       0.090500
     13 C6          -3.0230    -1.3910    -0.0140 c          1 3DG       0.522500
     14 O6          -3.6940    -2.3920     0.1700 o          1 3DG      -0.516000
     15 N1          -3.6380    -0.1410    -0.1670 ns         1 3DG      -0.460400
     16 C7          -3.0040     1.0520    -0.3750 cd         1 3DG       0.737800
     17 N2          -3.7790     2.1320    -0.5330 nv         1 3DG      -1.051200
     18 N3          -1.7000     1.1620    -0.4510 nc         1 3DG      -0.710100
     19 C9          -1.0660    -0.0110    -0.3160 cc         1 3DG       0.137400
     20 H1           0.8580     1.5230    -1.3330 h2         1 3DG       0.123700
     21 H2           0.6350     1.6320     1.3950 h1         1 3DG       0.072700
     22 H3'1         2.2870    -0.0750     1.8370 hc         1 3DG       0.067700
     23 H3'2         3.2590     1.3770     2.0550 hc         1 3DG       0.067700
     24 H4           4.1380     1.2630    -0.1890 h1         1 3DG       0.078700
     25 H5'1         4.9240    -0.6950     1.0920 h1         1 3DG       0.024200
     26 H5'2         3.5870    -1.6590     0.4670 h1         1 3DG       0.024200
     27 H5           5.4800    -1.8670    -0.8540 ho         1 3DG       0.507000
     28 H6           2.2340     3.3790     1.1600 ho         1 3DG       0.510000
     29 H8           1.4750    -1.9750    -0.1820 h5         1 3DG       0.064100
     30 HN1         -4.6490    -0.1440    -0.1210 hn         1 3DG       0.320500
     31 HN21        -3.3360     3.0340    -0.5510 hn         1 3DG       0.503500
     32 HN22        -4.7600     2.1110    -0.3110 hn         1 3DG       0.503500
@<TRIPOS>BOND
     1     1     2 1   
     2     1    10 1   
     3     1    19 1   
     4     2     3 1   
     5     2     6 1   
     6     2    20 1   
     7     3     4 1   
     8     3     9 1   
     9     3    21 1   
    10     4     5 1   
    11     4    22 1   
    12     4    23 1   
    13     5     6 1   
    14     5     7 1   
    15     5    24 1   
    16     7     8 1   
    17     7    25 1   
    18     7    26 1   
    19     8    27 1   
    20     9    28 1   
    21    10    11 2   
    22    10    29 1   
    23    11    12 1   
    24    12    13 1   
    25    12    19 2   
    26    13    14 2   
    27    13    15 1   
    28    15    16 1   
    29    15    30 1   
    30    16    17 1   
    31    16    18 2   
    32    17    31 1   
    33    17    32 1   
    34    18    19 1   
@<TRIPOS>SUBSTRUCTURE
     1 3DG         1 TEMP              0 ****  ****    0 ROOT
