@<TRIPOS>MOLECULE
3DG
   32    34     1     0     0
SMALL
No Charge or Current Charge


@<TRIPOS>ATOM
      1 N9          -0.0290    -0.0750     0.5410 na         1 3DG      -0.202500
      2 C1           1.0910     0.8460     0.3440 c5         1 3DG       0.319300
      3 C2           1.9250     1.2360     1.6260 c5         1 3DG       0.130300
      4 C3           3.2000     0.3760     1.4240 c5         1 3DG      -0.158400
      5 C4           3.3660     0.5000    -0.1100 c5         1 3DG       0.163300
      6 O4           2.0280     0.2370    -0.5820 os         1 3DG      -0.429000
      7 C5           4.3850    -0.4920    -0.7400 c3         1 3DG       0.160600
      8 O5           4.6110    -0.2030    -2.1320 oh         1 3DG      -0.703000
      9 O2           2.2690     2.6300     1.6630 oh         1 3DG      -0.706000
     10 C8          -0.0560    -1.1740     1.3780 cc         1 3DG       0.408400
     11 N7          -1.2470    -1.7680     1.3640 nd         1 3DG      -0.601000
     12 C10         -2.0220    -1.0110     0.4930 cd         1 3DG       0.090500
     13 C6          -3.4430    -1.1600     0.0630 c          1 3DG       0.522500
     14 O6          -4.2120    -2.0400     0.4240 o          1 3DG      -0.516000
     15 N1          -3.8230    -0.1790    -0.8090 ns         1 3DG      -0.460400
     16 C7          -2.9990     0.8030    -1.2250 cd         1 3DG       0.737800
     17 N2          -3.4950     1.6940    -2.0600 nv         1 3DG      -1.051200
     18 N3          -1.7460     0.9880    -0.8870 nc         1 3DG      -0.710100
     19 C9          -1.2800     0.0320    -0.0070 cc         1 3DG       0.137400
     20 H1           0.6630     1.7540    -0.0990 h2         1 3DG       0.123700
     21 H2           1.3940     0.9570     2.5490 h1         1 3DG       0.072700
     22 H3'1         3.0460    -0.6660     1.7280 hc         1 3DG       0.067700
     23 H3'2         4.0690     0.7540     1.9750 hc         1 3DG       0.067700
     24 H4           3.6510     1.5240    -0.3920 h1         1 3DG       0.078700
     25 H5'1         5.3300    -0.4170    -0.1860 h1         1 3DG       0.024200
     26 H5'2         4.0080    -1.5170    -0.6150 h1         1 3DG       0.024200
     27 H5           5.2160    -0.9030    -2.4760 ho         1 3DG       0.507000
     28 H6           2.7250     2.7980     2.5220 ho         1 3DG       0.510000
     29 H8           0.8050    -1.4890     1.9540 h5         1 3DG       0.064100
     30 HN1         -4.7650    -0.2260    -1.1580 hn         1 3DG       0.320500
     31 HN21        -2.8950     2.5010    -2.1790 hn         1 3DG       0.503500
     32 HN22        -4.4830     1.9020    -1.9800 hn         1 3DG       0.503500
@<TRIPOS>BOND
     1     1     2 1   
     2     1    10 1   
     3     1    19 1   
     4     2     3 1   
     5     2     6 1   
     6     2    20 1   
     7     3     4 1   
     8     3     9 1   
     9     3    21 1   
    10     4     5 1   
    11     4    22 1   
    12     4    23 1   
    13     5     6 1   
    14     5     7 1   
    15     5    24 1   
    16     7     8 1   
    17     7    25 1   
    18     7    26 1   
    19     8    27 1   
    20     9    28 1   
    21    10    11 2   
    22    10    29 1   
    23    11    12 1   
    24    12    13 1   
    25    12    19 2   
    26    13    14 2   
    27    13    15 1   
    28    15    16 1   
    29    15    30 1   
    30    16    17 1   
    31    16    18 2   
    32    17    31 1   
    33    17    32 1   
    34    18    19 1   
@<TRIPOS>SUBSTRUCTURE
     1 3DG         1 TEMP              0 ****  ****    0 ROOT
