@<TRIPOS>MOLECULE
3DH
   38    40     1     0     0
SMALL
No Charge or Current Charge


@<TRIPOS>ATOM
      1 CB           4.3080    -3.3700    -0.5400 c3         1 3DH      -0.080100
      2 CG           3.9660    -2.0660     0.2010 c3         1 3DH       0.056600
      3 SD           3.2390    -0.8340    -0.9680 ss         1 3DH      -0.396000
      4 C5           2.9360     0.5720     0.2000 c3         1 3DH       0.022600
      5 C4           2.2320     1.7830    -0.4740 c5         1 3DH       0.181300
      6 O4           0.9180     1.3980    -0.9480 os         1 3DH      -0.432000
      7 C3           1.9430     2.9800     0.4860 c5         1 3DH       0.111300
      8 O3           1.6210     4.1960    -0.1990 oh         1 3DH      -0.702000
      9 C2           0.6870     2.4470     1.2340 c5         1 3DH       0.078300
     10 O2          -0.0670     3.5390     1.8010 oh         1 3DH      -0.688000
     11 C1          -0.0640     1.6720     0.0810 c5         1 3DH       0.320300
     12 N9          -0.7720     0.4340     0.4170 na         1 3DH      -0.294300
     13 C8          -0.4700    -0.4480     1.4630 cc         1 3DH       0.410700
     14 N7          -1.3340    -1.4800     1.5040 nd         1 3DH      -0.558100
     15 C7          -2.1980    -1.2170     0.4370 ca         1 3DH      -0.100600
     16 C9          -1.8670    -0.0640    -0.2300 ca         1 3DH       0.134500
     17 N3          -2.5660     0.3770    -1.2940 nb         1 3DH      -0.213000
     18 C10         -3.6160    -0.3940    -1.6670 ca         1 3DH       0.179900
     19 N1          -4.0250    -1.5460    -1.0810 nb         1 3DH      -0.304000
     20 C6          -3.3100    -1.9540    -0.0210 ca         1 3DH       0.450900
     21 N6          -3.7170    -3.1100     0.5680 nv         1 3DH      -1.067900
     22 HB           3.4070    -3.8070    -0.9860 hc         1 3DH       0.047033
     23 HBA          5.0360    -3.1810    -1.3380 hc         1 3DH       0.047033
     24 HBB          4.7390    -4.1010     0.1550 hc         1 3DH       0.047033
     25 HG           3.2450    -2.2740     1.0020 h1         1 3DH       0.054200
     26 HGA          4.8750    -1.6460     0.6500 h1         1 3DH       0.054200
     27 H5           2.3370     0.2040     1.0400 h1         1 3DH       0.061200
     28 H5'A         3.9030     0.9050     0.6000 h1         1 3DH       0.061200
     29 H4           2.8450     2.1010    -1.3290 h1         1 3DH       0.108700
     30 H3           2.7800     3.1470     1.1800 h1         1 3DH       0.054700
     31 HO3          0.8850     4.5720     0.3490 ho         1 3DH       0.525000
     32 H2           1.0060     1.7630     2.0310 h1         1 3DH       0.054700
     33 HO2         -0.6980     3.1630     2.4630 ho         1 3DH       0.513000
     34 H1          -0.8260     2.3370    -0.3460 h2         1 3DH       0.123700
     35 H8           0.3630    -0.2970     2.1390 h5         1 3DH       0.081800
     36 H6          -4.1900    -0.0530    -2.5270 h5         1 3DH       0.045100
     37 HN6         -3.0650    -3.5420     1.2180 hn         1 3DH       0.506000
     38 HN6A        -4.3100    -3.7390     0.0330 hn         1 3DH       0.506000
@<TRIPOS>BOND
     1     1     2 1   
     2     1    22 1   
     3     1    23 1   
     4     1    24 1   
     5     2     3 1   
     6     2    25 1   
     7     2    26 1   
     8     3     4 1   
     9     4     5 1   
    10     4    27 1   
    11     4    28 1   
    12     5     6 1   
    13     5     7 1   
    14     5    29 1   
    15     6    11 1   
    16     7     8 1   
    17     7     9 1   
    18     7    30 1   
    19     8    31 1   
    20     9    10 1   
    21     9    11 1   
    22     9    32 1   
    23    10    33 1   
    24    11    12 1   
    25    11    34 1   
    26    12    13 1   
    27    12    16 1   
    28    13    14 2   
    29    13    35 1   
    30    14    15 1   
    31    15    16 ar  
    32    15    20 ar  
    33    16    17 ar  
    34    17    18 ar  
    35    18    19 ar  
    36    18    36 1   
    37    19    20 ar  
    38    20    21 1   
    39    21    37 1   
    40    21    38 1   
@<TRIPOS>SUBSTRUCTURE
     1 3DH         1 TEMP              0 ****  ****    0 ROOT
