@<TRIPOS>MOLECULE
3DH
   38    40     1     0     0
SMALL
abcg2


@<TRIPOS>ATOM
      1 CB           5.0510    -3.0970    -0.0220 c3         1 3DH      -0.080100
      2 CG           4.6690    -1.7440     0.5510 c3         1 3DH       0.056600
      3 SD           3.4200    -0.9580    -0.5090 ss         1 3DH      -0.396000
      4 C5           3.1060     0.5380     0.4660 c3         1 3DH       0.022600
      5 C4           2.3250     1.5480    -0.3580 c5         1 3DH       0.181300
      6 O4           1.2100     0.9340    -1.0130 os         1 3DH      -0.432000
      7 C3           1.7260     2.6510     0.5030 c5         1 3DH       0.111300
      8 O3           1.5200     3.7860    -0.2950 oh         1 3DH      -0.702000
      9 C2           0.3920     2.0120     0.8980 c5         1 3DH       0.078300
     10 O2          -0.6110     2.9140     1.2550 oh         1 3DH      -0.688000
     11 C1           0.0090     1.2900    -0.3970 c5         1 3DH       0.320300
     12 N9          -0.7860     0.1010    -0.1840 na         1 3DH      -0.294300
     13 C8          -0.3470    -1.1370     0.2020 cc         1 3DH       0.410700
     14 N7          -1.3090    -1.9990     0.3520 nd         1 3DH      -0.558100
     15 C7          -2.4470    -1.2960     0.0540 ca         1 3DH      -0.100600
     16 C9          -2.1440     0.0130    -0.2860 ca         1 3DH       0.134500
     17 N3          -3.0100     0.9600    -0.6410 nb         1 3DH      -0.213000
     18 C10         -4.2520     0.5100    -0.6390 ca         1 3DH       0.179900
     19 N1          -4.6920    -0.7080    -0.3310 nb         1 3DH      -0.304000
     20 C6          -3.8100    -1.6480     0.0240 ca         1 3DH       0.450900
     21 N6          -4.2460    -2.8700     0.3330 nv         1 3DH      -1.067900
     22 HB           4.1940    -3.7680    -0.0620 hc         1 3DH       0.047033
     23 HBA          5.4600    -3.0060    -1.0280 hc         1 3DH       0.047033
     24 HBB          5.8120    -3.5620     0.6060 hc         1 3DH       0.047033
     25 HG           4.2590    -1.8560     1.5560 h1         1 3DH       0.054200
     26 HGA          5.5400    -1.0910     0.6170 h1         1 3DH       0.054200
     27 H5           2.5830     0.2660     1.3870 h1         1 3DH       0.061200
     28 H5'A         4.0600     0.9860     0.7510 h1         1 3DH       0.061200
     29 H4           2.9790     1.9580    -1.1320 h1         1 3DH       0.108700
     30 H3           2.3520     2.8730     1.3780 h1         1 3DH       0.054700
     31 HO3          0.8420     4.3270     0.1260 ho         1 3DH       0.525000
     32 H2           0.5650     1.2710     1.6880 h1         1 3DH       0.054700
     33 HO2         -0.5110     3.1380     2.1860 ho         1 3DH       0.513000
     34 H1          -0.5900     1.9490    -1.0340 h2         1 3DH       0.123700
     35 H8           0.7050    -1.3550     0.3290 h5         1 3DH       0.081800
     36 H6          -5.0190     1.2240    -0.9230 h5         1 3DH       0.045100
     37 HN6         -3.6070    -3.5980     0.5990 hn         1 3DH       0.506000
     38 HN6A        -5.2270    -3.0850     0.2940 hn         1 3DH       0.506000
@<TRIPOS>BOND
     1     1     2 1   
     2     1    22 1   
     3     1    23 1   
     4     1    24 1   
     5     2     3 1   
     6     2    25 1   
     7     2    26 1   
     8     3     4 1   
     9     4     5 1   
    10     4    27 1   
    11     4    28 1   
    12     5     6 1   
    13     5     7 1   
    14     5    29 1   
    15     6    11 1   
    16     7     8 1   
    17     7     9 1   
    18     7    30 1   
    19     8    31 1   
    20     9    10 1   
    21     9    11 1   
    22     9    32 1   
    23    10    33 1   
    24    11    12 1   
    25    11    34 1   
    26    12    13 1   
    27    12    16 1   
    28    13    14 2   
    29    13    35 1   
    30    14    15 1   
    31    15    16 ar  
    32    15    20 ar  
    33    16    17 ar  
    34    17    18 ar  
    35    18    19 ar  
    36    18    36 1   
    37    19    20 ar  
    38    20    21 1   
    39    21    37 1   
    40    21    38 1   
@<TRIPOS>SUBSTRUCTURE
     1 3DH         1 TEMP              0 ****  ****    0 ROOT
