@<TRIPOS>MOLECULE
3DI
   21    22     1     0     0
SMALL
abcg2


@<TRIPOS>ATOM
      1 C1          10.7790    13.8610    17.1250 ca         1 3DI      -0.174000
      2 C2          11.0910    15.2100    17.1350 ca         1 3DI      -0.066000
      3 C3          10.4420    16.1060    16.2980 ca         1 3DI      -0.155000
      4 C4           9.4480    15.6360    15.4370 ca         1 3DI       0.020000
      5 C5           9.1320    14.2800    15.4250 ca         1 3DI      -0.160000
      6 C6           8.7320    16.5380    14.5360 cc         1 3DI      -0.098000
      7 C            9.7930    13.3730    16.2570 ca         1 3DI       0.298000
      8 C7           7.6080    17.5520    12.9330 cd         1 3DI       0.235900
      9 C8           8.0890    16.2980    13.3360 cd         1 3DI      -0.216000
     10 N1           8.5950    17.8620    14.7580 na         1 3DI       0.001800
     11 N2           7.9180    18.4920    13.8070 nc         1 3DI      -0.518800
     12 H1          11.3000    13.1780    17.7860 ha         1 3DI       0.114000
     13 H2          11.8600    15.5690    17.8070 ha         1 3DI       0.112000
     14 H3          10.7260    17.1500    16.3090 ha         1 3DI       0.110000
     15 H4           8.3490    13.9160    14.7690 ha         1 3DI       0.118000
     16 H5           9.7480    11.4890    17.0130 hn         1 3DI       0.452000
     17 H6           8.6080    11.7790    15.8260 hn         1 3DI       0.452000
     18 H7           7.0530    17.7980    12.0400 h4         1 3DI       0.036100
     19 H8           8.0010    15.3580    12.8170 ha         1 3DI       0.145000
     20 H9           8.9070    18.3820    15.5640 hn         1 3DI       0.370000
     21 N            9.5120    12.0270    16.1950 nv         1 3DI      -1.076000
@<TRIPOS>BOND
     1     1     2 ar  
     2     1     7 ar  
     3     1    12 1   
     4     2     3 ar  
     5     2    13 1   
     6     3     4 ar  
     7     3    14 1   
     8     4     5 ar  
     9     4     6 1   
    10     5     7 ar  
    11     5    15 1   
    12     6     9 2   
    13     6    10 1   
    14     7    21 1   
    15     8     9 1   
    16     8    11 2   
    17     8    18 1   
    18     9    19 1   
    19    10    11 1   
    20    10    20 1   
    21    16    21 1   
    22    17    21 1   
@<TRIPOS>SUBSTRUCTURE
     1 3DI         1 TEMP              0 ****  ****    0 ROOT
