@<TRIPOS>MOLECULE
3DI
   21    22     1     0     0
SMALL
No Charge or Current Charge


@<TRIPOS>ATOM
      1 C1          10.7230    13.8350    17.1920 ca         1 3DI      -0.174000
      2 C2          10.9760    15.2110    17.2990 ca         1 3DI      -0.066000
      3 C3          10.3320    16.1120    16.4340 ca         1 3DI      -0.155000
      4 C4           9.4300    15.6490    15.4520 ca         1 3DI       0.020000
      5 C5           9.1880    14.2610    15.3590 ca         1 3DI      -0.160000
      6 C6           8.7680    16.6090    14.5570 cc         1 3DI      -0.098000
      7 C            9.8300    13.3610    16.2230 ca         1 3DI       0.298000
      8 C7           7.4980    17.5250    12.9710 cd         1 3DI       0.235900
      9 C8           7.8730    16.3050    13.5720 cd         1 3DI      -0.216000
     10 N1           8.8890    17.9950    14.5040 na         1 3DI       0.001800
     11 N2           8.0990    18.5710    13.5160 nc         1 3DI      -0.518800
     12 H1          11.2240    13.1420    17.8630 ha         1 3DI       0.114000
     13 H2          11.6700    15.5810    18.0520 ha         1 3DI       0.112000
     14 H3          10.5420    17.1730    16.5340 ha         1 3DI       0.110000
     15 H4           8.5020    13.8700    14.6160 ha         1 3DI       0.118000
     16 H5           9.9380    11.3840    16.8380 hn         1 3DI       0.452000
     17 H6           8.8340    11.6800    15.5240 hn         1 3DI       0.452000
     18 H7           6.8040    17.6780    12.1530 h4         1 3DI       0.036100
     19 H8           7.5050    15.3260    13.2870 ha         1 3DI       0.145000
     20 H9           9.4810    18.5670    15.1040 hn         1 3DI       0.370000
     21 N            9.5860    12.0180    16.1220 nv         1 3DI      -1.076000
@<TRIPOS>BOND
     1     1     2 ar  
     2     1     7 ar  
     3     1    12 1   
     4     2     3 ar  
     5     2    13 1   
     6     3     4 ar  
     7     3    14 1   
     8     4     5 ar  
     9     4     6 1   
    10     5     7 ar  
    11     5    15 1   
    12     6     9 2   
    13     6    10 1   
    14     7    21 1   
    15     8     9 1   
    16     8    11 2   
    17     8    18 1   
    18     9    19 1   
    19    10    11 1   
    20    10    20 1   
    21    16    21 1   
    22    17    21 1   
@<TRIPOS>SUBSTRUCTURE
     1 3DI         1 TEMP              0 ****  ****    0 ROOT
