@<TRIPOS>MOLECULE
3DJ
   27    27     1     0     0
SMALL
No Charge or Current Charge


@<TRIPOS>ATOM
      1 C1          -0.3130     0.0050     1.1660 c          1 3DJ       0.587700
      2 C           -3.9370    -0.2240    -0.3230 c          1 3DJ       0.720000
      3 OXT         -4.7430    -1.0000     0.1730 o          1 3DJ      -0.729500
      4 CA          -2.3910    -0.5690    -0.2130 c3         1 3DJ       0.031500
      5 N           -1.6820    -0.8660    -1.5080 n8         1 3DJ      -0.983200
      6 CB          -1.6220     0.5330     0.5620 c3         1 3DJ      -0.195400
      7 O2          -0.3390    -0.6810     2.1830 o          1 3DJ      -0.580100
      8 CD2          0.9930     0.3700     0.5120 ca         1 3DJ      -0.244600
      9 CE2          1.2360     1.7060     0.1220 ca         1 3DJ      -0.041000
     10 CZ           2.4500     2.0620    -0.4870 ca         1 3DJ      -0.167000
     11 CE1          3.4400     1.0950    -0.7130 ca         1 3DJ      -0.138000
     12 CD1          3.2200    -0.2370    -0.3270 ca         1 3DJ       0.017100
     13 O3           4.2130    -1.1650    -0.5490 oh         1 3DJ      -0.558100
     14 CG           1.9890    -0.6030     0.2900 ca         1 3DJ       0.372000
     15 N1           1.7820    -1.9090     0.6560 nv         1 3DJ      -1.100000
     16 H2          -2.3430    -1.4840     0.3950 h1         1 3DJ       0.059700
     17 H3          -1.7530    -0.0470    -2.1240 hn         1 3DJ       0.378000
     18 H4          -0.6750    -0.9740    -1.3430 hn         1 3DJ       0.378000
     19 H6          -2.2580     0.8740     1.3870 hc         1 3DJ       0.069200
     20 H7          -1.4360     1.3650    -0.1250 hc         1 3DJ       0.069200
     21 H8           0.4940     2.4810     0.3040 ha         1 3DJ       0.130000
     22 H9           2.6240     3.0950    -0.7800 ha         1 3DJ       0.110000
     23 H10          4.3770     1.3870    -1.1840 ha         1 3DJ       0.097000
     24 H11          4.9720    -0.7180    -0.9850 ho         1 3DJ       0.456000
     25 H12          1.1040    -2.0760     1.3990 hn         1 3DJ       0.495500
     26 H13          2.5990    -2.5170     0.6450 hn         1 3DJ       0.495500
     27 O           -4.2700     0.7830    -0.9380 o          1 3DJ      -0.729500
@<TRIPOS>BOND
     1     1     6 1   
     2     1     7 2   
     3     1     8 1   
     4     2     3 1   
     5     2     4 1   
     6     2    27 1   
     7     4     5 1   
     8     4     6 1   
     9     4    16 1   
    10     5    17 1   
    11     5    18 1   
    12     6    19 1   
    13     6    20 1   
    14     8     9 ar  
    15     8    14 ar  
    16     9    10 ar  
    17     9    21 1   
    18    10    11 ar  
    19    10    22 1   
    20    11    12 ar  
    21    11    23 1   
    22    12    13 1   
    23    12    14 ar  
    24    13    24 1   
    25    14    15 1   
    26    15    25 1   
    27    15    26 1   
@<TRIPOS>SUBSTRUCTURE
     1 3DJ         1 TEMP              0 ****  ****    0 ROOT
