@<TRIPOS>MOLECULE
3DJ
   27    27     1     0     0
SMALL
abcg2


@<TRIPOS>ATOM
      1 C1          -0.1960    -0.5430     0.2230 c          1 3DJ       0.587700
      2 C           -3.9300     0.4750     0.0350 c          1 3DJ       0.720000
      3 OXT         -4.0950     1.0530     1.1300 o          1 3DJ      -0.729500
      4 CA          -2.7530    -0.5270    -0.0230 c3         1 3DJ       0.031500
      5 N           -2.8590    -1.3950    -1.1820 n8         1 3DJ      -0.983200
      6 CB          -1.4520     0.2850     0.0530 c3         1 3DJ      -0.195400
      7 O2          -0.2870    -1.7370     0.4780 o          1 3DJ      -0.580100
      8 CD2          1.1130     0.1230     0.0950 ca         1 3DJ      -0.244600
      9 CE2          1.1750     1.5180    -0.0940 ca         1 3DJ      -0.041000
     10 CZ           2.3730     2.1770    -0.2010 ca         1 3DJ      -0.167000
     11 CE1          3.5660     1.4500    -0.1290 ca         1 3DJ      -0.138000
     12 CD1          3.5440     0.0890     0.0510 ca         1 3DJ       0.017100
     13 O3           4.6600    -0.6730     0.1290 oh         1 3DJ      -0.558100
     14 CG           2.3170    -0.6180     0.1720 ca         1 3DJ       0.372000
     15 N1           2.3760    -1.9630     0.3160 nv         1 3DJ      -1.100000
     16 H2          -2.8140    -1.1510     0.8740 h1         1 3DJ       0.059700
     17 H3          -2.9500    -0.8270    -2.0150 hn         1 3DJ       0.378000
     18 H4          -2.0140    -1.9420    -1.2860 hn         1 3DJ       0.378000
     19 H6          -1.5060     0.9830     0.8950 hc         1 3DJ       0.069200
     20 H7          -1.3630     0.9060    -0.8440 hc         1 3DJ       0.069200
     21 H8           0.2620     2.0930    -0.1490 ha         1 3DJ       0.130000
     22 H9           2.4030     3.2490    -0.3390 ha         1 3DJ       0.110000
     23 H10          4.5170     1.9630    -0.2180 ha         1 3DJ       0.097000
     24 H11          5.4490    -0.1230     0.0750 ho         1 3DJ       0.456000
     25 H12          1.5350    -2.4440     0.5830 hn         1 3DJ       0.495500
     26 H13          3.2510    -2.3860     0.5700 hn         1 3DJ       0.495500
     27 O           -4.5920     0.6510    -1.0040 o          1 3DJ      -0.729500
@<TRIPOS>BOND
     1     1     6 1   
     2     1     7 2   
     3     1     8 1   
     4     2     3 1   
     5     2     4 1   
     6     2    27 1   
     7     4     5 1   
     8     4     6 1   
     9     4    16 1   
    10     5    17 1   
    11     5    18 1   
    12     6    19 1   
    13     6    20 1   
    14     8     9 ar  
    15     8    14 ar  
    16     9    10 ar  
    17     9    21 1   
    18    10    11 ar  
    19    10    22 1   
    20    11    12 ar  
    21    11    23 1   
    22    12    13 1   
    23    12    14 ar  
    24    13    24 1   
    25    14    15 1   
    26    15    25 1   
    27    15    26 1   
@<TRIPOS>SUBSTRUCTURE
     1 3DJ         1 TEMP              0 ****  ****    0 ROOT
