@<TRIPOS>MOLECULE
3DK
   45    49     1     0     0
SMALL
abcg2


@<TRIPOS>ATOM
      1 F29         -6.9630     1.6760    -0.8780 f          1 3DK      -0.174000
      2 C24         -6.3330     0.5290    -0.5810 ca         1 3DK       0.151000
      3 C23         -5.3670     0.5360     0.4060 ca         1 3DK      -0.113000
      4 C25         -6.6740    -0.6220    -1.2650 ca         1 3DK      -0.112000
      5 C26         -6.0220    -1.8020    -0.9440 ca         1 3DK      -0.131000
      6 C27         -5.0540    -1.7940     0.0430 ca         1 3DK       0.192000
      7 F28         -4.4390    -2.9470     0.3430 f          1 3DK      -0.160000
      8 C22         -4.7060    -0.6440     0.7330 ca         1 3DK      -0.133300
      9 C21         -3.6230    -0.6410     1.7790 c3         1 3DK       0.142900
     10 N17         -2.3250    -0.3680     1.1990 na         1 3DK       0.126800
     11 C16         -1.6850     0.8150     1.1740 cc         1 3DK      -0.171000
     12 N18         -1.6840    -1.3090     0.5160 nc         1 3DK      -0.514800
     13 C19         -0.5990    -0.7210     0.0500 cd         1 3DK       0.250900
     14 C10         -0.5350     0.6360     0.4310 cd         1 3DK      -0.124800
     15 C9           0.4910     1.6140     0.1180 cd         1 3DK      -0.035400
     16 C8           0.3230     2.9650    -0.0380 cc         1 3DK      -0.152100
     17 N7           1.5180     3.5650    -0.3180 na         1 3DK      -0.323400
     18 C4           2.4920     2.6170    -0.3580 ca         1 3DK       0.363500
     19 N3           3.7760     2.8240    -0.6000 nb         1 3DK      -0.682000
     20 C2           4.5400     1.7450    -0.5750 ca         1 3DK       0.360900
     21 C5           1.8890     1.3690    -0.0860 ca         1 3DK      -0.122800
     22 C6           2.7270     0.2600    -0.0430 ca         1 3DK      -0.022000
     23 C1           4.0820     0.4430    -0.2940 ca         1 3DK      -0.070000
     24 C11          5.0150    -0.6810    -0.2760 cc         1 3DK      -0.147000
     25 C15          6.3780    -0.6630    -0.0440 cd         1 3DK      -0.163000
     26 N14          6.8090    -1.9330    -0.1260 na         1 3DK       0.133800
     27 C20          8.1610    -2.4110     0.0320 c3         1 3DK       0.073900
     28 N13          5.8270    -2.7840    -0.3980 nd         1 3DK      -0.524800
     29 C12          4.7370    -2.0460    -0.4890 cc         1 3DK       0.250900
     30 H1          -5.1310     1.4560     0.9260 ha         1 3DK       0.132000
     31 H2          -7.4360    -0.6040    -2.0320 ha         1 3DK       0.138000
     32 H3          -6.2660    -2.7220    -1.4580 ha         1 3DK       0.140000
     33 H4          -3.8210     0.1350     2.5160 h1         1 3DK       0.075700
     34 H5          -3.5710    -1.5890     2.3120 h1         1 3DK       0.075700
     35 H6          -2.0690     1.6810     1.6900 h4         1 3DK       0.150000
     36 H7           0.1020    -1.2790    -0.5530 h4         1 3DK       0.040100
     37 H8          -0.5810     3.5510     0.0200 h4         1 3DK       0.214000
     38 H9           1.6520     4.5500    -0.4750 hn         1 3DK       0.361000
     39 H10          5.5900     1.9040    -0.7950 h4         1 3DK       0.015100
     40 H11          2.3420    -0.7220     0.2030 ha         1 3DK       0.125000
     41 H12          7.0530     0.1470     0.1810 h4         1 3DK       0.153000
     42 H13          8.2060    -3.1620     0.8180 h1         1 3DK       0.056033
     43 H14          8.5220    -2.8450    -0.8980 h1         1 3DK       0.056033
     44 H15          8.8010    -1.5770     0.3030 h1         1 3DK       0.056033
     45 H16          3.7870    -2.5060    -0.7180 h4         1 3DK       0.039100
@<TRIPOS>BOND
     1     1     2 1   
     2     2     3 ar  
     3     2     4 ar  
     4     3     8 ar  
     5     3    30 1   
     6     4     5 ar  
     7     4    31 1   
     8     5     6 ar  
     9     5    32 1   
    10     6     7 1   
    11     6     8 ar  
    12     8     9 1   
    13     9    10 1   
    14     9    33 1   
    15     9    34 1   
    16    10    11 1   
    17    10    12 1   
    18    11    14 2   
    19    11    35 1   
    20    12    13 2   
    21    13    14 1   
    22    13    36 1   
    23    14    15 1   
    24    15    16 2   
    25    15    21 1   
    26    16    17 1   
    27    16    37 1   
    28    17    18 1   
    29    17    38 1   
    30    18    19 ar  
    31    18    21 ar  
    32    19    20 ar  
    33    20    23 ar  
    34    20    39 1   
    35    21    22 ar  
    36    22    23 ar  
    37    22    40 1   
    38    23    24 1   
    39    24    25 2   
    40    24    29 1   
    41    25    26 1   
    42    25    41 1   
    43    26    27 1   
    44    26    28 1   
    45    27    42 1   
    46    27    43 1   
    47    27    44 1   
    48    28    29 2   
    49    29    45 1   
@<TRIPOS>SUBSTRUCTURE
     1 3DK         1 TEMP              0 ****  ****    0 ROOT
