@<TRIPOS>MOLECULE
3DK
   45    49     1     0     0
SMALL
No Charge or Current Charge


@<TRIPOS>ATOM
      1 F29         -6.7810     1.8330    -1.3530 f          1 3DK      -0.174000
      2 C24         -6.2080     0.6730    -0.9640 ca         1 3DK       0.151000
      3 C23         -5.3610     0.6550     0.1570 ca         1 3DK      -0.113000
      4 C25         -6.4610    -0.5050    -1.6830 ca         1 3DK      -0.112000
      5 C26         -5.8620    -1.7120    -1.2770 ca         1 3DK      -0.131000
      6 C27         -5.0140    -1.7330    -0.1570 ca         1 3DK       0.192000
      7 F28         -4.4490    -2.9030     0.2170 f          1 3DK      -0.160000
      8 C22         -4.7570    -0.5520     0.5710 ca         1 3DK      -0.133300
      9 C21         -3.8300    -0.5630     1.7840 c3         1 3DK       0.142900
     10 N17         -2.4140    -0.3590     1.4290 na         1 3DK       0.126800
     11 C16         -1.8230     0.8580     1.0960 cc         1 3DK      -0.171000
     12 N18         -1.5350    -1.4290     1.4120 nc         1 3DK      -0.514800
     13 C19         -0.3920    -0.8710     1.0580 cd         1 3DK       0.250900
     14 C10         -0.5210     0.5210     0.8560 cd         1 3DK      -0.124800
     15 C9           0.4900     1.4770     0.4660 cd         1 3DK      -0.035400
     16 C8           0.1400     2.8120     0.3220 cc         1 3DK      -0.152100
     17 N7           1.3410     3.4460    -0.0580 na         1 3DK      -0.323400
     18 C4           2.3870     2.5500    -0.1460 ca         1 3DK       0.363500
     19 N3           3.6680     2.7810    -0.4770 nb         1 3DK      -0.682000
     20 C2           4.5010     1.7070    -0.4880 ca         1 3DK       0.360900
     21 C5           1.9010     1.3010     0.1730 ca         1 3DK      -0.122800
     22 C6           2.7380     0.1750     0.1700 ca         1 3DK      -0.022000
     23 C1           4.0920     0.3820    -0.1730 ca         1 3DK      -0.070000
     24 C11          5.0270    -0.7510    -0.1970 cc         1 3DK      -0.147000
     25 C15          6.3460    -0.6220    -0.5200 cd         1 3DK      -0.163000
     26 N14          6.8580    -1.9210    -0.4200 na         1 3DK       0.133800
     27 C20          8.2470    -2.3310    -0.6680 c3         1 3DK       0.073900
     28 N13          5.8980    -2.8540    -0.0450 nd         1 3DK      -0.524800
     29 C12          4.8150    -2.1130     0.0780 cc         1 3DK       0.250900
     30 H1          -5.1760     1.5790     0.6990 ha         1 3DK       0.132000
     31 H2          -7.1180    -0.4820    -2.5500 ha         1 3DK       0.138000
     32 H3          -6.0520    -2.6300    -1.8280 ha         1 3DK       0.140000
     33 H4          -4.1250     0.2310     2.4800 h1         1 3DK       0.075700
     34 H5          -3.9280    -1.5150     2.3210 h1         1 3DK       0.075700
     35 H6          -2.3660     1.7930     1.0620 h4         1 3DK       0.150000
     36 H7           0.4800    -1.5010     0.9660 h4         1 3DK       0.040100
     37 H8          -0.8010     3.3370     0.4490 h4         1 3DK       0.214000
     38 H9           1.4480     4.4360    -0.2470 hn         1 3DK       0.361000
     39 H10          5.5320     1.9260    -0.7600 h4         1 3DK       0.015100
     40 H11          2.3730    -0.8130     0.4190 ha         1 3DK       0.125000
     41 H12          6.9520     0.2310    -0.8010 h4         1 3DK       0.153000
     42 H13          8.6630    -2.7840     0.2400 h1         1 3DK       0.056033
     43 H14          8.2720    -3.0630    -1.4850 h1         1 3DK       0.056033
     44 H15          8.8480    -1.4570    -0.9460 h1         1 3DK       0.056033
     45 H16          3.8900    -2.5920     0.3690 h4         1 3DK       0.039100
@<TRIPOS>BOND
     1     1     2 1   
     2     2     3 ar  
     3     2     4 ar  
     4     3     8 ar  
     5     3    30 1   
     6     4     5 ar  
     7     4    31 1   
     8     5     6 ar  
     9     5    32 1   
    10     6     7 1   
    11     6     8 ar  
    12     8     9 1   
    13     9    10 1   
    14     9    33 1   
    15     9    34 1   
    16    10    11 1   
    17    10    12 1   
    18    11    14 2   
    19    11    35 1   
    20    12    13 2   
    21    13    14 1   
    22    13    36 1   
    23    14    15 1   
    24    15    16 2   
    25    15    21 1   
    26    16    17 1   
    27    16    37 1   
    28    17    18 1   
    29    17    38 1   
    30    18    19 ar  
    31    18    21 ar  
    32    19    20 ar  
    33    20    23 ar  
    34    20    39 1   
    35    21    22 ar  
    36    22    23 ar  
    37    22    40 1   
    38    23    24 1   
    39    24    25 2   
    40    24    29 1   
    41    25    26 1   
    42    25    41 1   
    43    26    27 1   
    44    26    28 1   
    45    27    42 1   
    46    27    43 1   
    47    27    44 1   
    48    28    29 2   
    49    29    45 1   
@<TRIPOS>SUBSTRUCTURE
     1 3DK         1 TEMP              0 ****  ****    0 ROOT
