@<TRIPOS>MOLECULE
3DL
   33    35     1     0     0
SMALL
No Charge or Current Charge


@<TRIPOS>ATOM
      1 O3          -6.7220    -0.2890    -0.1960 o          1 3DL      -0.714500
      2 C17         -5.7820    -1.0170     0.0900 c          1 3DL       0.709600
      3 O2          -5.9250    -2.1960     0.3870 o          1 3DL      -0.714500
      4 C1          -4.3750    -0.4330     0.0770 ca         1 3DL      -0.103600
      5 C6          -4.1530     0.9200    -0.2600 ca         1 3DL      -0.102000
      6 C5          -2.8550     1.4600    -0.2710 ca         1 3DL      -0.102500
      7 C4          -1.7200     0.6710     0.0540 cp         1 3DL      -0.206500
      8 C3          -1.9570    -0.6910     0.3870 ca         1 3DL      -0.102500
      9 C2          -3.2540    -1.2300     0.4000 ca         1 3DL      -0.102000
     10 C7          -0.3240     1.2530     0.0430 cp         1 3DL       0.416500
     11 N2           0.7070     0.3630     0.0070 nb         1 3DL      -0.661000
     12 C10          1.9740     0.8650     0.0010 cp         1 3DL       0.359500
     13 C9           2.1970     2.2830     0.0240 ca         1 3DL       0.265900
     14 N1           1.1890     3.1970     0.0650 nb         1 3DL      -0.644000
     15 C8          -0.0650     2.6660     0.0760 ca         1 3DL       0.278900
     16 C11          3.1030    -0.1390    -0.0440 cp         1 3DL      -0.096500
     17 C16          4.4390     0.2220     0.2880 ca         1 3DL      -0.136000
     18 C15          5.4840    -0.7140     0.2440 ca         1 3DL       0.124100
     19 O1           6.7490    -0.3310     0.5710 oh         1 3DL      -0.540100
     20 C14          5.2300    -2.0400    -0.1310 ca         1 3DL      -0.203000
     21 C13          3.9230    -2.4300    -0.4610 ca         1 3DL      -0.081000
     22 C12          2.8750    -1.4950    -0.4160 ca         1 3DL      -0.103000
     23 H2          -4.9920     1.5640    -0.5190 ha         1 3DL       0.131000
     24 H3          -2.7420     2.5040    -0.5520 ha         1 3DL       0.097500
     25 H4          -1.1280    -1.3440     0.6490 ha         1 3DL       0.097500
     26 H5          -3.3850    -2.2770     0.6640 ha         1 3DL       0.131000
     27 H6           3.2020     2.6980    -0.0010 h4         1 3DL       0.020100
     28 H7          -0.8790     3.3860     0.1250 h4         1 3DL       0.032100
     29 H8           4.6770     1.2360     0.5980 ha         1 3DL       0.126000
     30 H9           7.3390    -1.1110     0.4850 ho         1 3DL       0.459000
     31 H10          6.0350    -2.7700    -0.1680 ha         1 3DL       0.105000
     32 H11          3.7200    -3.4590    -0.7520 ha         1 3DL       0.112000
     33 H12          1.8740    -1.8290    -0.6820 ha         1 3DL       0.145000
@<TRIPOS>BOND
     1     1     2 1   
     2     2     3 1   
     3     2     4 1   
     4     4     5 ar  
     5     4     9 ar  
     6     5     6 ar  
     7     5    23 1   
     8     6     7 ar  
     9     6    24 1   
    10     7     8 ar  
    11     7    10 1   
    12     8     9 ar  
    13     8    25 1   
    14     9    26 1   
    15    10    11 ar  
    16    10    15 ar  
    17    11    12 ar  
    18    12    13 ar  
    19    12    16 1   
    20    13    14 ar  
    21    13    27 1   
    22    14    15 ar  
    23    15    28 1   
    24    16    17 ar  
    25    16    22 ar  
    26    17    18 ar  
    27    17    29 1   
    28    18    19 1   
    29    18    20 ar  
    30    19    30 1   
    31    20    21 ar  
    32    20    31 1   
    33    21    22 ar  
    34    21    32 1   
    35    22    33 1   
@<TRIPOS>SUBSTRUCTURE
     1 3DL         1 TEMP              0 ****  ****    0 ROOT
