@<TRIPOS>MOLECULE
3DL
   33    35     1     0     0
SMALL
bcc


@<TRIPOS>ATOM
      1 O3          -6.6090    -0.2490    -0.0500 o          1 3DL      -0.819800
      2 C17         -5.6610    -1.0330     0.1470 c          1 3DL       0.920200
      3 O2          -5.7350    -2.2570     0.3670 o          1 3DL      -0.819800
      4 C1          -4.2610    -0.4320     0.1120 ca         1 3DL      -0.103600
      5 C6          -4.0720     0.9280    -0.1150 ca         1 3DL      -0.120000
      6 C5          -2.8020     1.4800    -0.1520 ca         1 3DL      -0.120500
      7 C4          -1.6720     0.6820     0.0370 cp         1 3DL      -0.206500
      8 C3          -1.8600    -0.6840     0.2620 ca         1 3DL      -0.120500
      9 C2          -3.1330    -1.2270     0.3000 ca         1 3DL      -0.120000
     10 C7          -0.3060     1.2410    -0.0030 cp         1 3DL       0.416500
     11 N2           0.7080     0.3840    -0.0130 nb         1 3DL      -0.661000
     12 C10          1.9510     0.8430    -0.0550 cp         1 3DL       0.359500
     13 C9           2.1830     2.2190    -0.1150 ca         1 3DL       0.265900
     14 N1           1.1870     3.0880    -0.0870 nb         1 3DL      -0.644000
     15 C8          -0.0460     2.6150    -0.0190 ca         1 3DL       0.278900
     16 C11          3.0460    -0.1480    -0.0590 cp         1 3DL      -0.096500
     17 C16          4.3310     0.2130     0.3400 ca         1 3DL      -0.154000
     18 C15          5.3610    -0.7230     0.3310 ca         1 3DL       0.125100
     19 O1           6.5780    -0.3090     0.7340 oh         1 3DL      -0.501100
     20 C14          5.1070    -2.0290    -0.0770 ca         1 3DL      -0.221000
     21 C13          3.8250    -2.3850    -0.4690 ca         1 3DL      -0.099000
     22 C12          2.7940    -1.4600    -0.4610 ca         1 3DL      -0.121000
     23 H2          -4.9330     1.5660    -0.2670 ha         1 3DL       0.149000
     24 H3          -2.7070     2.5410    -0.3410 ha         1 3DL       0.115500
     25 H4          -1.0000    -1.3220     0.4090 ha         1 3DL       0.115500
     26 H5          -3.2530    -2.2870     0.4760 ha         1 3DL       0.149000
     27 H6           3.1840     2.6230    -0.2000 h4         1 3DL       0.020100
     28 H7          -0.8410     3.3470     0.0230 h4         1 3DL       0.032100
     29 H8           4.5490     1.2170     0.6820 ha         1 3DL       0.144000
     30 H9           7.2130    -1.0330     0.6880 ho         1 3DL       0.420000
     31 H10          5.9030    -2.7650    -0.0860 ha         1 3DL       0.123000
     32 H11          3.6310    -3.4010    -0.7870 ha         1 3DL       0.130000
     33 H12          1.7990    -1.7500    -0.7700 ha         1 3DL       0.163000
@<TRIPOS>BOND
     1     1     2 1   
     2     2     3 1   
     3     2     4 1   
     4     4     5 ar  
     5     4     9 ar  
     6     5     6 ar  
     7     5    23 1   
     8     6     7 ar  
     9     6    24 1   
    10     7     8 ar  
    11     7    10 1   
    12     8     9 ar  
    13     8    25 1   
    14     9    26 1   
    15    10    11 ar  
    16    10    15 ar  
    17    11    12 ar  
    18    12    13 ar  
    19    12    16 1   
    20    13    14 ar  
    21    13    27 1   
    22    14    15 ar  
    23    15    28 1   
    24    16    17 ar  
    25    16    22 ar  
    26    17    18 ar  
    27    17    29 1   
    28    18    19 1   
    29    18    20 ar  
    30    19    30 1   
    31    20    21 ar  
    32    20    31 1   
    33    21    22 ar  
    34    21    32 1   
    35    22    33 1   
@<TRIPOS>SUBSTRUCTURE
     1 3DL         1 TEMP              0 ****  ****    0 ROOT
