@<TRIPOS>MOLECULE
3DM
   21    21     1     0     0
SMALL
No Charge or Current Charge


@<TRIPOS>ATOM
      1 O1           0.0330    -2.0090    -0.1860 oh         1 3DM      -0.517100
      2 C1           0.0470    -0.6380    -0.1050 ca         1 3DM       0.080100
      3 C2           1.2700     0.0750    -0.0570 ca         1 3DM       0.104100
      4 O2           2.4600    -0.6340    -0.0920 os         1 3DM      -0.342600
      5 C7           3.7450     0.0110    -0.0480 c3         1 3DM       0.152400
      6 C3           1.2460     1.4860     0.0260 ca         1 3DM      -0.190500
      7 C4           0.0210     2.1730     0.0590 ca         1 3DM      -0.078000
      8 C5          -1.1900     1.4650     0.0110 ca         1 3DM      -0.190500
      9 C6          -1.1830     0.0560    -0.0710 ca         1 3DM       0.104100
     10 O3          -2.3510    -0.6870    -0.1210 os         1 3DM      -0.342600
     11 C8          -3.6530    -0.0760    -0.0920 c3         1 3DM       0.152400
     12 HO1         -0.9100    -2.2850    -0.2070 ho         1 3DM       0.473000
     13 H7           4.5470    -0.7370    -0.0870 h1         1 3DM       0.040367
     14 H7A          3.8720     0.6890    -0.9010 h1         1 3DM       0.040367
     15 H7B          3.8620     0.5850     0.8810 h1         1 3DM       0.040367
     16 H3           2.1640     2.0660     0.0640 ha         1 3DM       0.119000
     17 H4           0.0120     3.2590     0.1230 ha         1 3DM       0.113000
     18 H5          -2.1200     2.0260     0.0390 ha         1 3DM       0.119000
     19 H8          -3.7950     0.4950     0.8340 h1         1 3DM       0.040367
     20 H8A         -3.7860     0.6000    -0.9470 h1         1 3DM       0.040367
     21 H8B         -4.4350    -0.8440    -0.1410 h1         1 3DM       0.040367
@<TRIPOS>BOND
     1     1     2 1   
     2     1    12 1   
     3     2     3 ar  
     4     2     9 ar  
     5     3     4 1   
     6     3     6 ar  
     7     4     5 1   
     8     5    13 1   
     9     5    14 1   
    10     5    15 1   
    11     6     7 ar  
    12     6    16 1   
    13     7     8 ar  
    14     7    17 1   
    15     8     9 ar  
    16     8    18 1   
    17     9    10 1   
    18    10    11 1   
    19    11    19 1   
    20    11    20 1   
    21    11    21 1   
@<TRIPOS>SUBSTRUCTURE
     1 3DM         1 TEMP              0 ****  ****    0 ROOT
