@<TRIPOS>MOLECULE
3DM
   21    21     1     0     0
SMALL
bcc


@<TRIPOS>ATOM
      1 O1           0.0860    -1.9470    -0.1770 oh         1 3DM      -0.478100
      2 C1           0.0380    -0.5990    -0.1010 ca         1 3DM       0.080100
      3 C2           1.2450     0.1040    -0.0580 ca         1 3DM       0.104100
      4 O2           2.3560    -0.6580    -0.1000 os         1 3DM      -0.319400
      5 C7           3.6080    -0.0060    -0.0480 c3         1 3DM       0.129200
      6 C3           1.2320     1.4940     0.0210 ca         1 3DM      -0.208500
      7 C4           0.0210     2.1710     0.0550 ca         1 3DM      -0.096000
      8 C5          -1.1840     1.4870     0.0130 ca         1 3DM      -0.208500
      9 C6          -1.1720     0.0980    -0.0660 ca         1 3DM       0.104100
     10 O3          -2.2700    -0.6900    -0.1160 os         1 3DM      -0.319400
     11 C8          -3.5430    -0.0760    -0.0900 c3         1 3DM       0.129200
     12 HO1         -0.8110    -2.3000    -0.2100 ho         1 3DM       0.434000
     13 H7           4.3650    -0.7850    -0.0950 h1         1 3DM       0.040367
     14 H7A          3.7510     0.6750    -0.8910 h1         1 3DM       0.040367
     15 H7B          3.7380     0.5550     0.8820 h1         1 3DM       0.040367
     16 H3           2.1540     2.0590     0.0580 ha         1 3DM       0.137000
     17 H4           0.0190     3.2500     0.1150 ha         1 3DM       0.131000
     18 H5          -2.1140     2.0380     0.0430 ha         1 3DM       0.137000
     19 H8          -3.7040     0.4810     0.8360 h1         1 3DM       0.040367
     20 H8A         -3.6840     0.5990    -0.9380 h1         1 3DM       0.040367
     21 H8B         -4.2750    -0.8760    -0.1520 h1         1 3DM       0.040367
@<TRIPOS>BOND
     1     1     2 1   
     2     1    12 1   
     3     2     3 ar  
     4     2     9 ar  
     5     3     4 1   
     6     3     6 ar  
     7     4     5 1   
     8     5    13 1   
     9     5    14 1   
    10     5    15 1   
    11     6     7 ar  
    12     6    16 1   
    13     7     8 ar  
    14     7    17 1   
    15     8     9 ar  
    16     8    18 1   
    17     9    10 1   
    18    10    11 1   
    19    11    19 1   
    20    11    20 1   
    21    11    21 1   
@<TRIPOS>SUBSTRUCTURE
     1 3DM         1 TEMP              0 ****  ****    0 ROOT
