@<TRIPOS>MOLECULE
3DN
   57    60     1     0     0
SMALL
abcg2


@<TRIPOS>ATOM
      1 N1           3.7860    -0.6890     0.8090 n3         1 3DN      -0.718600
      2 C1          -4.7980    -0.4700    -0.4520 ca         1 3DN       0.019200
      3 C2          -5.3500     0.7370     0.0160 ca         1 3DN      -0.166600
      4 C3          -4.5250     1.6880     0.7590 c          1 3DN       0.572600
      5 C4          -2.6670     0.1230     0.5200 cc         1 3DN       0.120400
      6 C5          -3.4240    -0.7590    -0.1730 cd         1 3DN      -0.251200
      7 C6          -0.7340     0.3360     2.0830 ca         1 3DN      -0.094500
      8 C7           0.9060    -1.0340     0.3230 ca         1 3DN      -0.100000
      9 C8           2.8630    -0.8710     1.9090 c3         1 3DN       0.210100
     10 C9           4.7870     0.8690    -0.8050 c6         1 3DN      -0.089900
     11 C10          5.0990    -1.2130     1.1470 c6         1 3DN       0.166300
     12 C11          6.8560    -0.1480    -2.8030 c3         1 3DN       0.156600
     13 C12          7.5630     1.8690    -1.7520 c3         1 3DN       0.156600
     14 C13         -6.6910     1.0510    -0.2280 ca         1 3DN      -0.048000
     15 N2          -3.2260     1.2990     0.9520 ns         1 3DN      -0.383100
     16 C14         -5.6180    -1.3710    -1.1740 ca         1 3DN      -0.088300
     17 C15         -5.0660    -2.6670    -1.6870 c3         1 3DN      -0.044800
     18 C16         -6.9360    -1.0300    -1.3980 ca         1 3DN      -0.078000
     19 C17         -7.4790     0.1720    -0.9320 ca         1 3DN      -0.131000
     20 C18         -1.2590    -0.1120     0.8720 ca         1 3DN      -0.075800
     21 C19         -0.4170    -0.7990    -0.0050 ca         1 3DN      -0.094500
     22 C20          1.4330    -0.5870     1.5340 ca         1 3DN      -0.069300
     23 C21          0.5950     0.1010     2.4030 ca         1 3DN      -0.100000
     24 C22          6.0580    -1.1140    -0.0290 c6         1 3DN      -0.089900
     25 C23          6.1870     0.3330    -0.4920 c6         1 3DN       0.184500
     26 N3           7.1830     0.4890    -1.5450 n3         1 3DN      -0.722600
     27 C24          3.8690     0.7020     0.3960 c6         1 3DN       0.166300
     28 H2          -2.9880    -1.6970    -0.4830 ha         1 3DN       0.199000
     29 H4          -1.3560     0.8560     2.8010 ha         1 3DN       0.118500
     30 H5           1.5480    -1.5520    -0.3780 ha         1 3DN       0.124500
     31 H6           2.9330    -1.9130     2.2380 h1         1 3DN       0.040700
     32 H7           3.1370    -0.2590     2.7860 h1         1 3DN       0.040700
     33 H8           4.8220     1.9270    -1.0770 hc         1 3DN       0.052200
     34 H9           4.3610     0.3310    -1.6580 hc         1 3DN       0.052200
     35 H10          5.5300    -0.6820     2.0140 h1         1 3DN       0.032950
     36 H11          4.9900    -2.2590     1.4450 h1         1 3DN       0.032950
     37 H12          7.7180    -0.0890    -3.4700 h1         1 3DN       0.029367
     38 H13          6.6300    -1.2040    -2.6610 h1         1 3DN       0.029367
     39 H14          6.0060     0.3080    -3.3320 h1         1 3DN       0.029367
     40 H15          7.8620     2.3240    -0.8050 h1         1 3DN       0.029367
     41 H16          8.4200     1.9200    -2.4270 h1         1 3DN       0.029367
     42 H17          6.7690     2.4950    -2.1860 h1         1 3DN       0.029367
     43 H18         -7.0980     1.9830     0.1390 ha         1 3DN       0.136000
     44 H19         -4.2470    -2.5060    -2.3910 hc         1 3DN       0.042367
     45 H20         -4.6760    -3.2890    -0.8800 hc         1 3DN       0.042367
     46 H21         -5.8360    -3.2390    -2.2030 hc         1 3DN       0.042367
     47 H22         -7.5680    -1.7130    -1.9540 ha         1 3DN       0.111000
     48 H23         -8.5180     0.4040    -1.1270 ha         1 3DN       0.118000
     49 H24         -0.7940    -1.1350    -0.9630 ha         1 3DN       0.118500
     50 H25          0.9810     0.4610     3.3490 ha         1 3DN       0.124500
     51 H26          7.0350    -1.5030     0.2660 hc         1 3DN       0.052200
     52 H27          5.6840    -1.7460    -0.8390 hc         1 3DN       0.052200
     53 H28          6.5710     0.9050     0.3630 h1         1 3DN       0.050700
     54 H30          2.8680     1.0560     0.1410 h1         1 3DN       0.032950
     55 H31          4.2270     1.3390     1.2250 h1         1 3DN       0.032950
     56 H1          -2.6340     1.9730     1.4190 hn         1 3DN       0.326500
     57 O1          -4.9220     2.7660     1.1820 o          1 3DN      -0.559000
@<TRIPOS>BOND
     1     1     9 1   
     2     1    11 1   
     3     1    27 1   
     4     2     3 ar  
     5     2     6 1   
     6     2    16 ar  
     7     3     4 1   
     8     3    14 ar  
     9     4    15 1   
    10     4    57 2   
    11     5     6 2   
    12     5    15 1   
    13     5    20 1   
    14     6    28 1   
    15     7    20 ar  
    16     7    23 ar  
    17     7    29 1   
    18     8    21 ar  
    19     8    22 ar  
    20     8    30 1   
    21     9    22 1   
    22     9    31 1   
    23     9    32 1   
    24    10    25 1   
    25    10    27 1   
    26    10    33 1   
    27    10    34 1   
    28    11    24 1   
    29    11    35 1   
    30    11    36 1   
    31    12    26 1   
    32    12    37 1   
    33    12    38 1   
    34    12    39 1   
    35    13    26 1   
    36    13    40 1   
    37    13    41 1   
    38    13    42 1   
    39    14    19 ar  
    40    14    43 1   
    41    15    56 1   
    42    16    17 1   
    43    16    18 ar  
    44    17    44 1   
    45    17    45 1   
    46    17    46 1   
    47    18    19 ar  
    48    18    47 1   
    49    19    48 1   
    50    20    21 ar  
    51    21    49 1   
    52    22    23 ar  
    53    23    50 1   
    54    24    25 1   
    55    24    51 1   
    56    24    52 1   
    57    25    26 1   
    58    25    53 1   
    59    27    54 1   
    60    27    55 1   
@<TRIPOS>SUBSTRUCTURE
     1 3DN         1 TEMP              0 ****  ****    0 ROOT
