@<TRIPOS>MOLECULE
3DN
   57    60     1     0     0
SMALL
No Charge or Current Charge


@<TRIPOS>ATOM
      1 N1           3.8340    -0.9010     0.6770 n3         1 3DN      -0.718600
      2 C1          -4.9200    -0.4520    -0.3800 ca         1 3DN       0.019200
      3 C2          -5.2930     0.9110    -0.3050 ca         1 3DN      -0.166600
      4 C3          -4.2770     1.9480     0.1120 c          1 3DN       0.572600
      5 C4          -2.6300     0.1600     0.3290 cc         1 3DN       0.120400
      6 C5          -3.5330    -0.8080    -0.0410 cd         1 3DN      -0.251200
      7 C6          -0.6170     0.3550     1.7860 ca         1 3DN      -0.094500
      8 C7           0.7690    -1.5150     0.2180 ca         1 3DN      -0.100000
      9 C8           2.8370    -1.3300     1.6880 c3         1 3DN       0.210100
     10 C9           4.8510     0.9880    -0.6340 c6         1 3DN      -0.089900
     11 C10          5.1850    -1.4600     0.9540 c6         1 3DN       0.166300
     12 C11          7.0400     0.3390    -2.7730 c3         1 3DN       0.156600
     13 C12          7.6330     2.2610    -1.3560 c3         1 3DN       0.156600
     14 C13         -6.6130     1.2930    -0.6200 ca         1 3DN      -0.048000
     15 N2          -3.0190     1.4800     0.3990 ns         1 3DN      -0.383100
     16 C14         -5.8730    -1.4260    -0.7700 ca         1 3DN      -0.088300
     17 C15         -5.5110    -2.9060    -0.8640 c3         1 3DN      -0.044800
     18 C16         -7.1870    -1.0240    -1.0810 ca         1 3DN      -0.078000
     19 C17         -7.5540     0.3280    -1.0060 ca         1 3DN      -0.131000
     20 C18         -1.2580    -0.2230     0.6710 ca         1 3DN      -0.075800
     21 C19         -0.5500    -1.1590    -0.1130 ca         1 3DN      -0.094500
     22 C20          1.4030    -0.9400     1.3350 ca         1 3DN      -0.069300
     23 C21          0.7020    -0.0020     2.1160 ca         1 3DN      -0.100000
     24 C22          6.1820    -1.1130    -0.1740 c6         1 3DN      -0.089900
     25 C23          6.2730     0.4220    -0.3650 c6         1 3DN       0.184500
     26 N3           7.2930     0.8200    -1.3900 n3         1 3DN      -0.722600
     27 C24          3.8810     0.5780     0.4980 c6         1 3DN       0.166300
     28 H2          -3.2110    -1.8430    -0.0600 ha         1 3DN       0.199000
     29 H4          -1.1430     1.0760     2.4070 ha         1 3DN       0.118500
     30 H5           1.3050    -2.2330    -0.3980 ha         1 3DN       0.124500
     31 H6           2.8670    -2.4230     1.7960 h1         1 3DN       0.040700
     32 H7           3.0950    -0.9090     2.6700 h1         1 3DN       0.040700
     33 H8           4.8750     2.0820    -0.7040 hc         1 3DN       0.052200
     34 H9           4.4620     0.6150    -1.5900 hc         1 3DN       0.052200
     35 H10          5.5710    -1.0700     1.9090 h1         1 3DN       0.032950
     36 H11          5.1320    -2.5550     1.0500 h1         1 3DN       0.032950
     37 H12          7.8770     0.6090    -3.4300 h1         1 3DN       0.029367
     38 H13          6.9390    -0.7530    -2.8090 h1         1 3DN       0.029367
     39 H14          6.1280     0.7870    -3.1890 h1         1 3DN       0.029367
     40 H15          7.8810     2.5790    -0.3340 h1         1 3DN       0.029367
     41 H16          8.5040     2.4670    -1.9920 h1         1 3DN       0.029367
     42 H17          6.7980     2.8760    -1.7160 h1         1 3DN       0.029367
     43 H18         -6.9110     2.3390    -0.5670 ha         1 3DN       0.136000
     44 H19         -4.7010    -3.0690    -1.5840 hc         1 3DN       0.042367
     45 H20         -5.1860    -3.2950     0.1080 hc         1 3DN       0.042367
     46 H21         -6.3630    -3.5150    -1.1900 hc         1 3DN       0.042367
     47 H22         -7.9280    -1.7600    -1.3820 ha         1 3DN       0.111000
     48 H23         -8.5710     0.6280    -1.2480 ha         1 3DN       0.118000
     49 H24         -1.0150    -1.6040    -0.9890 ha         1 3DN       0.118500
     50 H25          1.1800     0.4530     2.9820 ha         1 3DN       0.124500
     51 H26          7.1720    -1.5210     0.0690 hc         1 3DN       0.052200
     52 H27          5.8510    -1.6050    -1.0980 hc         1 3DN       0.052200
     53 H28          6.5980     0.8310     0.6050 h1         1 3DN       0.050700
     54 H30          2.8830     0.9700     0.2530 h1         1 3DN       0.032950
     55 H31          4.1960     1.0630     1.4350 h1         1 3DN       0.032950
     56 H1          -2.3450     2.1830     0.6680 hn         1 3DN       0.326500
     57 O1          -4.5350     3.1400     0.1950 o          1 3DN      -0.559000
@<TRIPOS>BOND
     1     1     9 1   
     2     1    11 1   
     3     1    27 1   
     4     2     3 ar  
     5     2     6 1   
     6     2    16 ar  
     7     3     4 1   
     8     3    14 ar  
     9     4    15 1   
    10     4    57 2   
    11     5     6 2   
    12     5    15 1   
    13     5    20 1   
    14     6    28 1   
    15     7    20 ar  
    16     7    23 ar  
    17     7    29 1   
    18     8    21 ar  
    19     8    22 ar  
    20     8    30 1   
    21     9    22 1   
    22     9    31 1   
    23     9    32 1   
    24    10    25 1   
    25    10    27 1   
    26    10    33 1   
    27    10    34 1   
    28    11    24 1   
    29    11    35 1   
    30    11    36 1   
    31    12    26 1   
    32    12    37 1   
    33    12    38 1   
    34    12    39 1   
    35    13    26 1   
    36    13    40 1   
    37    13    41 1   
    38    13    42 1   
    39    14    19 ar  
    40    14    43 1   
    41    15    56 1   
    42    16    17 1   
    43    16    18 ar  
    44    17    44 1   
    45    17    45 1   
    46    17    46 1   
    47    18    19 ar  
    48    18    47 1   
    49    19    48 1   
    50    20    21 ar  
    51    21    49 1   
    52    22    23 ar  
    53    23    50 1   
    54    24    25 1   
    55    24    51 1   
    56    24    52 1   
    57    25    26 1   
    58    25    53 1   
    59    27    54 1   
    60    27    55 1   
@<TRIPOS>SUBSTRUCTURE
     1 3DN         1 TEMP              0 ****  ****    0 ROOT
