@<TRIPOS>MOLECULE
3DO
   23    23     1     0     0
SMALL
No Charge or Current Charge


@<TRIPOS>ATOM
      1 C2          25.6970    32.0020    32.4610 c6         1 3DO       0.162300
      2 C3          25.5120    30.4510    32.4530 c6         1 3DO      -0.066400
      3 C4          24.6460    29.9360    33.6390 c6         1 3DO       0.140300
      4 C5          25.1710    30.5040    35.0200 c6         1 3DO       0.143300
      5 C6          26.2020    29.5590    35.7140 c3         1 3DO       0.157600
      6 O1          25.8770    33.8980    34.0370 oh         1 3DO      -0.649000
      7 O6          25.6570    28.2630    36.0230 oh         1 3DO      -0.729000
      8 O5          25.8350    31.7960    34.8840 os         1 3DO      -0.492000
      9 O4          23.2740    30.3180    33.4130 oh         1 3DO      -0.707000
     10 O2          25.0170    32.6420    31.3600 oh         1 3DO      -0.705000
     11 C1          25.2990    32.6200    33.8510 c6         1 3DO       0.359300
     12 H2          26.7770    32.1790    32.3410 h1         1 3DO       0.048700
     13 H3          25.0900    30.1130    31.4970 hc         1 3DO       0.066200
     14 H3A         26.5030    29.9820    32.5220 hc         1 3DO       0.066200
     15 H4          24.7120    28.8370    33.6530 h1         1 3DO       0.053700
     16 H5          24.3190    30.6270    35.7040 h1         1 3DO       0.051700
     17 H61         27.0730    29.4540    35.0520 h1         1 3DO       0.036700
     18 H62         26.5470    30.0500    36.6340 h1         1 3DO       0.036700
     19 HO1         26.2380    33.8500    34.9480 ho         1 3DO       0.458000
     20 HO6         26.3620    27.7570    36.4930 ho         1 3DO       0.512000
     21 HO4         22.7160    29.7480    33.9930 ho         1 3DO       0.503000
     22 HO2         25.1280    33.6110    31.5020 ho         1 3DO       0.508000
     23 H1          24.2040    32.6850    33.9530 h2         1 3DO       0.044700
@<TRIPOS>BOND
     1     1     2 1   
     2     1    10 1   
     3     1    11 1   
     4     1    12 1   
     5     2     3 1   
     6     2    13 1   
     7     2    14 1   
     8     3     4 1   
     9     3     9 1   
    10     3    15 1   
    11     4     5 1   
    12     4     8 1   
    13     4    16 1   
    14     5     7 1   
    15     5    17 1   
    16     5    18 1   
    17     6    11 1   
    18     6    19 1   
    19     7    20 1   
    20     8    11 1   
    21     9    21 1   
    22    10    22 1   
    23    11    23 1   
@<TRIPOS>SUBSTRUCTURE
     1 3DO         1 TEMP              0 ****  ****    0 ROOT
