@<TRIPOS>MOLECULE
3DO
   23    23     1     0     0
SMALL
bcc


@<TRIPOS>ATOM
      1 C2          25.6920    32.0050    32.5050 c6         1 3DO       0.139100
      2 C3          25.6010    30.4760    32.5310 c6         1 3DO      -0.066400
      3 C4          24.7230    29.9480    33.6510 c6         1 3DO       0.117100
      4 C5          25.2490    30.4760    35.0030 c6         1 3DO       0.120100
      5 C6          26.2020    29.4920    35.6620 c3         1 3DO       0.134400
      6 O1          26.0460    33.7900    34.0210 oh         1 3DO      -0.586800
      7 O6          25.4580    28.3660    36.0650 oh         1 3DO      -0.606800
      8 O5          25.9730    31.6840    34.8630 os         1 3DO      -0.445600
      9 O4          23.3920    30.3480    33.3920 oh         1 3DO      -0.584800
     10 O2          24.7880    32.5280    31.5580 oh         1 3DO      -0.582800
     11 C1          25.4240    32.5610    33.9050 c6         1 3DO       0.312900
     12 H2          26.7240    32.2760    32.2380 h1         1 3DO       0.048700
     13 H3          25.2450    30.1090    31.5660 hc         1 3DO       0.066200
     14 H3A         26.6020    30.0600    32.6610 hc         1 3DO       0.066200
     15 H4          24.7870    28.8530    33.6630 h1         1 3DO       0.053700
     16 H5          24.3930    30.6320    35.6790 h1         1 3DO       0.051700
     17 H61         26.9970    29.2240    34.9540 h1         1 3DO       0.036700
     18 H62         26.6850    29.9840    36.5160 h1         1 3DO       0.036700
     19 HO1         25.6720    34.2700    34.7680 ho         1 3DO       0.419000
     20 HO6         26.0730    27.6750    36.3240 ho         1 3DO       0.413000
     21 HO4         22.8310    30.0030    34.0930 ho         1 3DO       0.404000
     22 HO2         24.9610    33.4710    31.4660 ho         1 3DO       0.409000
     23 H1          24.3380    32.6480    34.0640 h2         1 3DO       0.044700
@<TRIPOS>BOND
     1     1     2 1   
     2     1    10 1   
     3     1    11 1   
     4     1    12 1   
     5     2     3 1   
     6     2    13 1   
     7     2    14 1   
     8     3     4 1   
     9     3     9 1   
    10     3    15 1   
    11     4     5 1   
    12     4     8 1   
    13     4    16 1   
    14     5     7 1   
    15     5    17 1   
    16     5    18 1   
    17     6    11 1   
    18     6    19 1   
    19     7    20 1   
    20     8    11 1   
    21     9    21 1   
    22    10    22 1   
    23    11    23 1   
@<TRIPOS>SUBSTRUCTURE
     1 3DO         1 TEMP              0 ****  ****    0 ROOT
