@<TRIPOS>MOLECULE
3DP
   47    46     1     0     0
SMALL
abcg2


@<TRIPOS>ATOM
      1 CAA          9.7320    -0.1380     0.0360 c3         1 3DP      -0.089100
      2 CAG          8.4410     0.6680     0.0060 c3         1 3DP      -0.074400
      3 CAH          7.1970    -0.2130    -0.0050 c3         1 3DP      -0.075400
      4 CAI          5.8940     0.5750    -0.0270 c3         1 3DP      -0.074400
      5 CAJ          4.6610    -0.3200    -0.0350 c3         1 3DP      -0.074400
      6 CAK          3.3530     0.4600    -0.0450 c3         1 3DP      -0.075400
      7 CAL          2.1380    -0.4660    -0.0480 c3         1 3DP      -0.099400
      8 CAN          0.8650     0.3590    -0.0360 c3         1 3DP       0.096600
      9 NAQ         -0.4320    -0.4160    -0.0250 n4         1 3DP      -0.499000
     10 CAB         -0.5400    -1.2550    -1.2490 c3         1 3DP       0.075900
     11 CAC         -0.5050    -1.2820     1.1820 c3         1 3DP       0.075900
     12 CAO         -1.5390     0.6080     0.0020 c3         1 3DP       0.099600
     13 CAM         -2.9510     0.0510     0.0080 c3         1 3DP      -0.052400
     14 CAP         -3.9340     1.2090     0.0560 c3         1 3DP      -0.363400
     15 SAR         -5.6480     0.6480     0.0860 s6         1 3DP       1.310600
     16 OAF         -5.7750    -0.1800     1.3020 o          1 3DP      -0.673867
     17 OAE         -6.4520     1.8840     0.1390 o          1 3DP      -0.673867
     18 OAD         -5.8390    -0.1210    -1.1590 o          1 3DP      -0.673867
     19 HAA1        10.6110     0.5060     0.0420 hc         1 3DP       0.034700
     20 HAA2         9.7790    -0.7700     0.9260 hc         1 3DP       0.034700
     21 HAA3         9.8070    -0.7920    -0.8350 hc         1 3DP       0.034700
     22 HAG1         8.4030     1.3350     0.8740 hc         1 3DP       0.038700
     23 HAG2         8.4320     1.3170    -0.8750 hc         1 3DP       0.038700
     24 HAH1         7.2350    -0.8780    -0.8750 hc         1 3DP       0.038700
     25 HAH2         7.2110    -0.8670     0.8750 hc         1 3DP       0.038700
     26 HAI1         5.8550     1.2390     0.8440 hc         1 3DP       0.041700
     27 HAI2         5.8770     1.2280    -0.9070 hc         1 3DP       0.041700
     28 HAJ1         4.6980    -0.9800    -0.9090 hc         1 3DP       0.042700
     29 HAJ2         4.6850    -0.9760     0.8420 hc         1 3DP       0.042700
     30 HAK1         3.3120     1.1160     0.8310 hc         1 3DP       0.049700
     31 HAK2         3.3200     1.1120    -0.9230 hc         1 3DP       0.049700
     32 HAL1         2.1870    -1.1060    -0.9310 hc         1 3DP       0.059700
     33 HAL2         2.1940    -1.1160     0.8280 hc         1 3DP       0.059700
     34 HAN1         0.8400     0.9970     0.8480 hx         1 3DP       0.088700
     35 HAN2         0.8240     1.0020    -0.9160 hx         1 3DP       0.088700
     36 HAB1         0.2700    -1.9780    -1.2690 hx         1 3DP       0.092533
     37 HAB2        -1.4820    -1.7940    -1.2410 hx         1 3DP       0.092533
     38 HAB3        -0.4890    -0.6150    -2.1260 hx         1 3DP       0.092533
     39 HAC1        -0.4240    -0.6620     2.0720 hx         1 3DP       0.092533
     40 HAC2        -1.4490    -1.8170     1.1910 hx         1 3DP       0.092533
     41 HAC3         0.3020    -2.0070     1.1610 hx         1 3DP       0.092533
     42 HAO1        -1.3690     1.2180     0.8900 hx         1 3DP       0.082200
     43 HAO2        -1.3860     1.2440    -0.8710 hx         1 3DP       0.082200
     44 HAM1        -3.1430    -0.5400    -0.8880 hc         1 3DP       0.071700
     45 HAM2        -3.1150    -0.5930     0.8720 hc         1 3DP       0.071700
     46 HAP1        -3.7830     1.8200     0.9490 h1         1 3DP       0.077200
     47 HAP2        -3.8220     1.8590    -0.8140 h1         1 3DP       0.077200
@<TRIPOS>BOND
     1     1     2 1   
     2     1    19 1   
     3     1    20 1   
     4     1    21 1   
     5     2     3 1   
     6     2    22 1   
     7     2    23 1   
     8     3     4 1   
     9     3    24 1   
    10     3    25 1   
    11     4     5 1   
    12     4    26 1   
    13     4    27 1   
    14     5     6 1   
    15     5    28 1   
    16     5    29 1   
    17     6     7 1   
    18     6    30 1   
    19     6    31 1   
    20     7     8 1   
    21     7    32 1   
    22     7    33 1   
    23     8     9 1   
    24     8    34 1   
    25     8    35 1   
    26     9    10 1   
    27     9    11 1   
    28     9    12 1   
    29    10    36 1   
    30    10    37 1   
    31    10    38 1   
    32    11    39 1   
    33    11    40 1   
    34    11    41 1   
    35    12    13 1   
    36    12    42 1   
    37    12    43 1   
    38    13    14 1   
    39    13    44 1   
    40    13    45 1   
    41    14    15 1   
    42    14    46 1   
    43    14    47 1   
    44    15    16 1   
    45    15    17 1   
    46    15    18 1   
@<TRIPOS>SUBSTRUCTURE
     1 3DP         1 TEMP              0 ****  ****    0 ROOT
