@<TRIPOS>MOLECULE
3DP
   47    46     1     0     0
SMALL
No Charge or Current Charge


@<TRIPOS>ATOM
      1 CAA          9.8830    -0.1160    -0.0260 c3         1 3DP      -0.089100
      2 CAG          8.5610     0.6760    -0.0120 c3         1 3DP      -0.074400
      3 CAH          7.3120    -0.2310    -0.0210 c3         1 3DP      -0.075400
      4 CAI          5.9880     0.5630    -0.0070 c3         1 3DP      -0.074400
      5 CAJ          4.7380    -0.3450    -0.0160 c3         1 3DP      -0.074400
      6 CAK          3.4140     0.4500    -0.0010 c3         1 3DP      -0.075400
      7 CAL          2.1670    -0.4580    -0.0110 c3         1 3DP      -0.099400
      8 CAN          0.8530     0.3540     0.0040 c3         1 3DP       0.096600
      9 NAQ         -0.4740    -0.4230    -0.0030 n4         1 3DP      -0.499000
     10 CAB         -0.5660    -1.2880    -1.2720 c3         1 3DP       0.075900
     11 CAC         -0.5590    -1.3230     1.2410 c3         1 3DP       0.075900
     12 CAO         -1.6180     0.6040     0.0140 c3         1 3DP       0.099600
     13 CAM         -3.0700     0.0800     0.0110 c3         1 3DP      -0.052400
     14 CAP         -4.1030     1.2340     0.0300 c3         1 3DP      -0.363400
     15 SAR         -5.8270     0.6800     0.0260 s6         1 3DP       1.310600
     16 OAF         -5.9390    -0.1210     1.2530 o          1 3DP      -0.673867
     17 OAE         -6.5870     1.9380     0.0460 o          1 3DP      -0.673867
     18 OAD         -5.9450    -0.0870    -1.2210 o          1 3DP      -0.673867
     19 HAA1        10.7390     0.5690    -0.0190 hc         1 3DP       0.034700
     20 HAA2         9.9560    -0.7660     0.8540 hc         1 3DP       0.034700
     21 HAA3         9.9510    -0.7410    -0.9250 hc         1 3DP       0.034700
     22 HAG1         8.5400     1.3160     0.8790 hc         1 3DP       0.038700
     23 HAG2         8.5350     1.3410    -0.8840 hc         1 3DP       0.038700
     24 HAH1         7.3380    -0.8710    -0.9120 hc         1 3DP       0.038700
     25 HAH2         7.3430    -0.8960     0.8510 hc         1 3DP       0.038700
     26 HAI1         5.9610     1.2030     0.8840 hc         1 3DP       0.041700
     27 HAI2         5.9560     1.2280    -0.8790 hc         1 3DP       0.041700
     28 HAJ1         4.7650    -0.9840    -0.9070 hc         1 3DP       0.042700
     29 HAJ2         4.7690    -1.0090     0.8560 hc         1 3DP       0.042700
     30 HAK1         3.3870     1.0900     0.8900 hc         1 3DP       0.049700
     31 HAK2         3.3820     1.1150    -0.8740 hc         1 3DP       0.049700
     32 HAL1         2.1950    -1.0950    -0.9020 hc         1 3DP       0.059700
     33 HAL2         2.1990    -1.1190     0.8630 hc         1 3DP       0.059700
     34 HAN1         0.8520     0.9870     0.8940 hx         1 3DP       0.088700
     35 HAN2         0.8470     1.0110    -0.8680 hx         1 3DP       0.088700
     36 HAB1         0.2570    -2.0040    -1.2820 hx         1 3DP       0.092533
     37 HAB2        -1.5150    -1.8270    -1.2740 hx         1 3DP       0.092533
     38 HAB3        -0.5050    -0.6430    -2.1510 hx         1 3DP       0.092533
     39 HAC1        -0.4940    -0.7030     2.1380 hx         1 3DP       0.092533
     40 HAC2        -1.5090    -1.8620     1.2340 hx         1 3DP       0.092533
     41 HAC3         0.2640    -2.0390     1.2270 hx         1 3DP       0.092533
     42 HAO1        -1.4820     1.2230     0.9040 hx         1 3DP       0.082200
     43 HAO2        -1.4870     1.2480    -0.8590 hx         1 3DP       0.082200
     44 HAM1        -3.2300    -0.5390    -0.8800 hc         1 3DP       0.071700
     45 HAM2        -3.2260    -0.5640     0.8850 hc         1 3DP       0.071700
     46 HAP1        -3.9820     1.8440     0.9310 h1         1 3DP       0.077200
     47 HAP2        -3.9870     1.8690    -0.8550 h1         1 3DP       0.077200
@<TRIPOS>BOND
     1     1     2 1   
     2     1    19 1   
     3     1    20 1   
     4     1    21 1   
     5     2     3 1   
     6     2    22 1   
     7     2    23 1   
     8     3     4 1   
     9     3    24 1   
    10     3    25 1   
    11     4     5 1   
    12     4    26 1   
    13     4    27 1   
    14     5     6 1   
    15     5    28 1   
    16     5    29 1   
    17     6     7 1   
    18     6    30 1   
    19     6    31 1   
    20     7     8 1   
    21     7    32 1   
    22     7    33 1   
    23     8     9 1   
    24     8    34 1   
    25     8    35 1   
    26     9    10 1   
    27     9    11 1   
    28     9    12 1   
    29    10    36 1   
    30    10    37 1   
    31    10    38 1   
    32    11    39 1   
    33    11    40 1   
    34    11    41 1   
    35    12    13 1   
    36    12    42 1   
    37    12    43 1   
    38    13    14 1   
    39    13    44 1   
    40    13    45 1   
    41    14    15 1   
    42    14    46 1   
    43    14    47 1   
    44    15    16 1   
    45    15    17 1   
    46    15    18 1   
@<TRIPOS>SUBSTRUCTURE
     1 3DP         1 TEMP              0 ****  ****    0 ROOT
