@<TRIPOS>MOLECULE
3DQ
   39    40     1     0     0
SMALL
bcc


@<TRIPOS>ATOM
      1 CAA         -6.2240     0.0770    -0.6460 c3         1 3DQ       0.130700
      2 OAN         -5.3480    -0.6910     0.1530 os         1 3DQ      -0.327900
      3 CAR         -4.0800    -0.2600     0.3120 ca         1 3DQ       0.120100
      4 CAK         -3.2450    -1.0570     1.0930 ca         1 3DQ      -0.189000
      5 CAI         -1.9290    -0.6860     1.3050 ca         1 3DQ      -0.088500
      6 CAJ         -3.5720     0.9130    -0.2440 ca         1 3DQ      -0.189000
      7 CAH         -2.2470     1.2640    -0.0180 ca         1 3DQ      -0.088500
      8 CAQ         -1.3990     0.4790     0.7530 ca         1 3DQ      -0.103300
      9 CAL          0.0430     0.8590     0.9540 c3         1 3DQ      -0.018100
     10 CAU          0.8730     0.6360    -0.3250 c6         1 3DQ      -0.149700
     11 CAP          0.6950    -0.7660    -0.8490 c          1 3DQ       0.574100
     12 OAC          0.1510    -1.0320    -1.8980 o          1 3DQ      -0.551100
     13 CAT          1.3090    -1.8670    -0.0080 c6         1 3DQ      -0.004900
     14 OAF          1.0630    -3.1370    -0.5370 oh         1 3DQ      -0.611800
     15 CAS          2.8140    -1.5980     0.1580 c6         1 3DQ       0.135100
     16 OAE          3.3840    -2.5150     1.0620 oh         1 3DQ      -0.604800
     17 CAM          3.0530    -0.1920     0.6830 c6         1 3DQ      -0.057400
     18 CAV          2.4060     0.8630    -0.2100 c6         1 3DQ       0.014800
     19 CAO          2.7040     2.3000     0.2970 c          1 3DQ       0.913600
     20 OAB          2.5690     2.5380     1.5050 o          1 3DQ      -0.809800
     21 OAD          3.0610     3.0930    -0.6020 o          1 3DQ      -0.809800
     22 OAG          2.9340     0.7460    -1.5120 oh         1 3DQ      -0.646800
     23 HAA1        -5.8650     0.1680    -1.6750 h1         1 3DQ       0.033367
     24 HAA2        -7.1760    -0.4480    -0.6550 h1         1 3DQ       0.033367
     25 HAA3        -6.3800     1.0790    -0.2380 h1         1 3DQ       0.033367
     26 HAK         -3.6340    -1.9670     1.5340 ha         1 3DQ       0.129500
     27 HAJ         -4.1870     1.5620    -0.8520 ha         1 3DQ       0.129500
     28 HAI         -1.3010    -1.3200     1.9220 ha         1 3DQ       0.134000
     29 HAH         -1.8770     2.1830    -0.4580 ha         1 3DQ       0.134000
     30 HAL1         0.1170     1.9130     1.2220 hc         1 3DQ       0.072700
     31 HAL2         0.4540     0.3030     1.7990 hc         1 3DQ       0.072700
     32 HAU          0.4970     1.3210    -1.0920 hc         1 3DQ       0.076700
     33 HAT          0.8610    -1.8240     0.9950 h1         1 3DQ       0.081700
     34 HAF          0.8590    -3.0340    -1.4760 ho         1 3DQ       0.419000
     35 HAS          3.2810    -1.7000    -0.8320 h1         1 3DQ       0.043700
     36 HAE          3.3120    -3.3960     0.6800 ho         1 3DQ       0.399000
     37 HAM1         2.6690    -0.1060     1.7020 hc         1 3DQ       0.063700
     38 HAM2         4.1300    -0.0090     0.7380 hc         1 3DQ       0.063700
     39 HAG          3.1280     1.6770    -1.7380 ho         1 3DQ       0.444000
@<TRIPOS>BOND
     1     1     2 1   
     2     1    23 1   
     3     1    24 1   
     4     1    25 1   
     5     2     3 1   
     6     3     4 ar  
     7     3     6 ar  
     8     4     5 ar  
     9     4    26 1   
    10     5     8 ar  
    11     5    28 1   
    12     6     7 ar  
    13     6    27 1   
    14     7     8 ar  
    15     7    29 1   
    16     8     9 1   
    17     9    10 1   
    18     9    30 1   
    19     9    31 1   
    20    10    11 1   
    21    10    18 1   
    22    10    32 1   
    23    11    12 2   
    24    11    13 1   
    25    13    14 1   
    26    13    15 1   
    27    13    33 1   
    28    14    34 1   
    29    15    16 1   
    30    15    17 1   
    31    15    35 1   
    32    16    36 1   
    33    17    18 1   
    34    17    37 1   
    35    17    38 1   
    36    18    19 1   
    37    18    22 1   
    38    19    20 1   
    39    19    21 1   
    40    22    39 1   
@<TRIPOS>SUBSTRUCTURE
     1 3DQ         1 TEMP              0 ****  ****    0 ROOT
