@<TRIPOS>MOLECULE
3DQ
   39    40     1     0     0
SMALL
No Charge or Current Charge


@<TRIPOS>ATOM
      1 CAA         -6.4200     0.3130    -0.6350 c3         1 3DQ       0.153900
      2 OAN         -5.5180    -0.5000     0.1350 os         1 3DQ      -0.351100
      3 CAR         -4.1870    -0.1730     0.2940 ca         1 3DQ       0.120100
      4 CAK         -3.3870    -1.0320     1.0640 ca         1 3DQ      -0.171000
      5 CAI         -2.0240    -0.7510     1.2620 ca         1 3DQ      -0.070500
      6 CAJ         -3.6120     0.9800    -0.2820 ca         1 3DQ      -0.171000
      7 CAH         -2.2480     1.2610    -0.0840 ca         1 3DQ      -0.070500
      8 CAQ         -1.4460     0.3970     0.6860 ca         1 3DQ      -0.103300
      9 CAL          0.0330     0.7060     0.8940 c3         1 3DQ      -0.018100
     10 CAU          0.9100     0.4880    -0.3920 c6         1 3DQ      -0.149700
     11 CAP          0.7590    -0.9890    -0.8250 c          1 3DQ       0.574100
     12 OAC         -0.1010    -1.3360    -1.6300 o          1 3DQ      -0.551100
     13 CAT          1.6280    -2.0490    -0.0780 c6         1 3DQ       0.018300
     14 OAF          1.6390    -3.3380    -0.7580 oh         1 3DQ      -0.674000
     15 CAS          3.0750    -1.5570     0.1870 c6         1 3DQ       0.158300
     16 OAE          3.7220    -2.4670     1.0840 oh         1 3DQ      -0.667000
     17 CAM          3.1210    -0.1160     0.7480 c6         1 3DQ      -0.057400
     18 CAV          2.4060     0.9140    -0.1890 c6         1 3DQ       0.038000
     19 CAO          2.4880     2.4020     0.3820 c          1 3DQ       0.703000
     20 OAB          3.1250     2.6020     1.4070 o          1 3DQ      -0.704500
     21 OAD          2.3100     3.2900    -0.4420 o          1 3DQ      -0.704500
     22 OAG          3.0400     0.8780    -1.4920 oh         1 3DQ      -0.709000
     23 HAA1        -6.0850     0.3880    -1.6770 h1         1 3DQ       0.033367
     24 HAA2        -7.4250    -0.1270    -0.6320 h1         1 3DQ       0.033367
     25 HAA3        -6.4910     1.3240    -0.2130 h1         1 3DQ       0.033367
     26 HAK         -3.8250    -1.9200     1.5110 ha         1 3DQ       0.111500
     27 HAJ         -4.2020     1.6670    -0.8820 ha         1 3DQ       0.111500
     28 HAI         -1.4200    -1.4290     1.8620 ha         1 3DQ       0.116000
     29 HAH         -1.8140     2.1530    -0.5320 ha         1 3DQ       0.116000
     30 HAL1         0.1090     1.7460     1.2330 hc         1 3DQ       0.072700
     31 HAL2         0.4150     0.1070     1.7290 hc         1 3DQ       0.072700
     32 HAU          0.4450     1.1050    -1.1720 hc         1 3DQ       0.076700
     33 HAT          1.1340    -2.1500     0.9000 h1         1 3DQ       0.081700
     34 HAF          0.8010    -3.3910    -1.2760 ho         1 3DQ       0.458000
     35 HAS          3.6090    -1.5620    -0.7750 h1         1 3DQ       0.043700
     36 HAE          3.4540    -3.3600     0.7690 ho         1 3DQ       0.438000
     37 HAM1         2.6880    -0.0940     1.7560 hc         1 3DQ       0.063700
     38 HAM2         4.1730     0.1750     0.8700 hc         1 3DQ       0.063700
     39 HAG          3.0210     1.8150    -1.8060 ho         1 3DQ       0.483000
@<TRIPOS>BOND
     1     1     2 1   
     2     1    23 1   
     3     1    24 1   
     4     1    25 1   
     5     2     3 1   
     6     3     4 ar  
     7     3     6 ar  
     8     4     5 ar  
     9     4    26 1   
    10     5     8 ar  
    11     5    28 1   
    12     6     7 ar  
    13     6    27 1   
    14     7     8 ar  
    15     7    29 1   
    16     8     9 1   
    17     9    10 1   
    18     9    30 1   
    19     9    31 1   
    20    10    11 1   
    21    10    18 1   
    22    10    32 1   
    23    11    12 2   
    24    11    13 1   
    25    13    14 1   
    26    13    15 1   
    27    13    33 1   
    28    14    34 1   
    29    15    16 1   
    30    15    17 1   
    31    15    35 1   
    32    16    36 1   
    33    17    18 1   
    34    17    37 1   
    35    17    38 1   
    36    18    19 1   
    37    18    22 1   
    38    19    20 1   
    39    19    21 1   
    40    22    39 1   
@<TRIPOS>SUBSTRUCTURE
     1 3DQ         1 TEMP              0 ****  ****    0 ROOT
