@<TRIPOS>MOLECULE
3DS
   19    19     1     0     0
SMALL
bcc


@<TRIPOS>ATOM
      1 OAA         -2.8870     1.3230    -0.0980 o          1 3DS      -0.817300
      2 OAB          2.0320     2.0240    -0.4510 o          1 3DS      -0.584100
      3 OAC         -3.0370    -0.8560     0.3570 o          1 3DS      -0.817300
      4 OAD          1.1710    -1.3680    -1.6050 oh         1 3DS      -0.581800
      5 OAE          1.9250    -0.2680     1.7480 oh         1 3DS      -0.581800
      6 CAF         -0.1200     1.1420    -0.1220 ce         1 3DS      -0.294200
      7 CAG         -0.2980    -1.3040     0.2520 c6         1 3DS      -0.040200
      8 CAH         -2.4120     0.1920     0.1060 c          1 3DS       0.915800
      9 CAI          1.3400     1.0720    -0.1410 c          1 3DS       0.561300
     10 CAJ         -0.8870     0.0570     0.0580 cf         1 3DS      -0.069400
     11 CAK          1.1510    -1.4050    -0.1940 c6         1 3DS       0.151100
     12 CAL          1.9640    -0.2340     0.3400 c6         1 3DS       0.008100
     13 HAF         -0.5760     2.1110    -0.2830 ha         1 3DS       0.165000
     14 HAG         -0.3770    -1.5770     1.3080 hc         1 3DS       0.076700
     15 HAGA        -0.8930    -2.0480    -0.2810 hc         1 3DS       0.076700
     16 HAK          1.5800    -2.3420     0.1830 h1         1 3DS       0.023700
     17 HAL          2.9950    -0.2930    -0.0330 h1         1 3DS       0.023700
     18 HOAD         2.0680    -1.5460    -1.9030 ho         1 3DS       0.383000
     19 HOAE         2.5830     0.3450     2.0900 ho         1 3DS       0.400000
@<TRIPOS>BOND
     1     1     8 1   
     2     2     9 2   
     3     3     8 1   
     4     4    11 1   
     5     4    18 1   
     6     5    12 1   
     7     5    19 1   
     8     6     9 1   
     9     6    10 2   
    10     6    13 1   
    11     7    10 1   
    12     7    11 1   
    13     7    14 1   
    14     7    15 1   
    15     8    10 1   
    16     9    12 1   
    17    11    12 1   
    18    11    16 1   
    19    12    17 1   
@<TRIPOS>SUBSTRUCTURE
     1 3DS         1 TEMP              0 ****  ****    0 ROOT
