@<TRIPOS>MOLECULE
3DS
   19    19     1     0     0
SMALL
No Charge or Current Charge


@<TRIPOS>ATOM
      1 OAA         -2.9740     1.2580    -0.3410 o          1 3DS      -0.712000
      2 OAB          1.9860     2.1850     0.0250 o          1 3DS      -0.584100
      3 OAC         -3.1470    -0.8390     0.0810 o          1 3DS      -0.712000
      4 OAD          1.0810    -1.4320    -1.6250 oh         1 3DS      -0.644000
      5 OAE          2.3190    -0.3840     1.7200 oh         1 3DS      -0.644000
      6 CAF         -0.1470     1.1710    -0.0790 ce         1 3DS      -0.344200
      7 CAG         -0.3250    -1.2980     0.3590 c6         1 3DS      -0.040200
      8 CAH         -2.4740     0.1700    -0.0830 c          1 3DS       0.705200
      9 CAI          1.3350     1.1460     0.0480 c          1 3DS       0.561300
     10 CAJ         -0.9660     0.0770     0.0590 cf         1 3DS      -0.069400
     11 CAK          1.1190    -1.4100    -0.1900 c6         1 3DS       0.174300
     12 CAL          2.0120    -0.2360     0.3090 c6         1 3DS       0.031300
     13 HAF         -0.5770     2.1500    -0.2800 ha         1 3DS       0.215000
     14 HAG         -0.3200    -1.4590     1.4450 hc         1 3DS       0.076700
     15 HAGA        -0.9300    -2.1090    -0.0670 hc         1 3DS       0.076700
     16 HAK          1.5510    -2.3560     0.1690 h1         1 3DS       0.023700
     17 HAL          2.9470    -0.2400    -0.2690 h1         1 3DS       0.023700
     18 HOAD         1.9570    -1.7570    -1.9260 ho         1 3DS       0.422000
     19 HOAE         2.8760     0.3860     1.9770 ho         1 3DS       0.439000
@<TRIPOS>BOND
     1     1     8 1   
     2     2     9 2   
     3     3     8 1   
     4     4    11 1   
     5     4    18 1   
     6     5    12 1   
     7     5    19 1   
     8     6     9 1   
     9     6    10 2   
    10     6    13 1   
    11     7    10 1   
    12     7    11 1   
    13     7    14 1   
    14     7    15 1   
    15     8    10 1   
    16     9    12 1   
    17    11    12 1   
    18    11    16 1   
    19    12    17 1   
@<TRIPOS>SUBSTRUCTURE
     1 3DS         1 TEMP              0 ****  ****    0 ROOT
