@<TRIPOS>MOLECULE
3DT
   34    35     1     0     0
SMALL
No Charge or Current Charge


@<TRIPOS>ATOM
      1 N1          -0.5220    -0.3480     0.1160 n          1 3DT      -0.313000
      2 C2          -1.6180    -1.2240     0.2230 c          1 3DT       0.621000
      3 O2          -1.4540    -2.4190     0.4350 o          1 3DT      -0.554000
      4 N3          -2.9040    -0.6830     0.0750 n          1 3DT      -0.368400
      5 C4          -3.1610     0.6790    -0.1440 c          1 3DT       0.584200
      6 O4          -4.3010     1.1190    -0.2390 o          1 3DT      -0.528000
      7 C5          -1.9610     1.5430    -0.2510 cc         1 3DT      -0.264400
      8 C6          -0.7010     1.0100    -0.1230 cd         1 3DT      -0.006400
      9 C7          -2.2210     3.0110    -0.5010 c3         1 3DT      -0.017900
     10 CN          -4.0670    -1.6080     0.1850 c3         1 3DT       0.083300
     11 C1           0.8460    -0.9130     0.2600 c5         1 3DT       0.334700
     12 C8           1.4350    -1.0730    -1.1820 c5         1 3DT      -0.167400
     13 C3           2.6090    -0.0580    -1.1960 c5         1 3DT       0.135300
     14 O3           3.6590    -0.4740    -2.0710 oh         1 3DT      -0.701000
     15 C9           3.0070    -0.0790     0.3080 c5         1 3DT       0.164300
     16 O1           1.7160     0.0100     0.9460 os         1 3DT      -0.444000
     17 C10          3.9320     1.0880     0.7540 c3         1 3DT       0.170600
     18 O5           4.3690     0.9240     2.1170 oh         1 3DT      -0.703000
     19 H6           0.2160     1.5890    -0.1900 h4         1 3DT       0.201000
     20 H7          -2.8120     3.4510     0.3120 hc         1 3DT       0.045700
     21 H7A         -1.2840     3.5760    -0.5720 hc         1 3DT       0.045700
     22 H7B         -2.7690     3.1610    -1.4390 hc         1 3DT       0.045700
     23 HN          -4.3500    -1.7190     1.2390 h1         1 3DT       0.058700
     24 HNA         -4.9300    -1.2310    -0.3780 h1         1 3DT       0.058700
     25 HNB         -3.8200    -2.5960    -0.2230 h1         1 3DT       0.058700
     26 H1           0.7990    -1.8720     0.7940 h2         1 3DT       0.112700
     27 H2           1.7890    -2.1010    -1.3230 hc         1 3DT       0.077200
     28 H2'A         0.7080    -0.8770    -1.9780 hc         1 3DT       0.077200
     29 H3           2.2520     0.9430    -1.4750 h1         1 3DT       0.036700
     30 HO3          3.3060    -0.4290    -2.9910 ho         1 3DT       0.513000
     31 H4           3.4800    -1.0340     0.5750 h1         1 3DT       0.082700
     32 H5           4.8020     1.1160     0.0850 h1         1 3DT       0.028200
     33 H5'A         3.3900     2.0360     0.6330 h1         1 3DT       0.028200
     34 HO5          4.9020     1.7220     2.3460 ho         1 3DT       0.507000
@<TRIPOS>BOND
     1     1     2 1   
     2     1     8 1   
     3     1    11 1   
     4     2     3 2   
     5     2     4 1   
     6     4     5 1   
     7     4    10 1   
     8     5     6 2   
     9     5     7 1   
    10     7     8 2   
    11     7     9 1   
    12     8    19 1   
    13     9    20 1   
    14     9    21 1   
    15     9    22 1   
    16    10    23 1   
    17    10    24 1   
    18    10    25 1   
    19    11    12 1   
    20    11    16 1   
    21    11    26 1   
    22    12    13 1   
    23    12    27 1   
    24    12    28 1   
    25    13    14 1   
    26    13    15 1   
    27    13    29 1   
    28    14    30 1   
    29    15    16 1   
    30    15    17 1   
    31    15    31 1   
    32    17    18 1   
    33    17    32 1   
    34    17    33 1   
    35    18    34 1   
@<TRIPOS>SUBSTRUCTURE
     1 3DT         1 TEMP              0 ****  ****    0 ROOT
