@<TRIPOS>MOLECULE
3DT
   34    35     1     0     0
SMALL
abcg2


@<TRIPOS>ATOM
      1 N1          -0.5190    -0.5190    -0.1250 n          1 3DT      -0.313000
      2 C2          -1.5870    -1.2690     0.3140 c          1 3DT       0.621000
      3 O2          -1.4720    -2.4250     0.6700 o          1 3DT      -0.554000
      4 N3          -2.8090    -0.6280     0.3140 n          1 3DT      -0.368400
      5 C4          -3.0080     0.7170     0.0180 c          1 3DT       0.584200
      6 O4          -4.1120     1.2210     0.1170 o          1 3DT      -0.528000
      7 C5          -1.8330     1.4520    -0.4090 cc         1 3DT      -0.264400
      8 C6          -0.6630     0.8000    -0.4550 cd         1 3DT      -0.006400
      9 C7          -1.9780     2.8960    -0.7580 c3         1 3DT      -0.017900
     10 CN          -3.9610    -1.4190     0.7330 c3         1 3DT       0.083300
     11 C1           0.8130    -1.1090    -0.1540 c5         1 3DT       0.334700
     12 C8           1.5290    -0.9710    -1.5040 c5         1 3DT      -0.167400
     13 C3           2.6600     0.0230    -1.2340 c5         1 3DT       0.135300
     14 O3           3.8520    -0.2270    -1.9250 oh         1 3DT      -0.701000
     15 C9           2.8870    -0.1550     0.2640 c5         1 3DT       0.164300
     16 O1           1.6050    -0.4390     0.7990 os         1 3DT      -0.444000
     17 C10          3.4620     1.0700     0.9290 c3         1 3DT       0.170600
     18 O5           3.7340     0.7840     2.2790 oh         1 3DT      -0.703000
     19 H6           0.2400     1.3100    -0.7630 h4         1 3DT       0.201000
     20 H7          -2.3340     3.4780     0.0940 hc         1 3DT       0.045700
     21 H7A         -1.0240     3.3160    -1.0730 hc         1 3DT       0.045700
     22 H7B         -2.6920     3.0410    -1.5690 hc         1 3DT       0.045700
     23 HN          -4.0530    -1.4300     1.8180 h1         1 3DT       0.058700
     24 HNA         -4.8600    -0.9870     0.3090 h1         1 3DT       0.058700
     25 HNB         -3.8590    -2.4380     0.3760 h1         1 3DT       0.058700
     26 H1           0.6880    -2.1560     0.1160 h2         1 3DT       0.112700
     27 H2           1.9600    -1.9340    -1.7820 hc         1 3DT       0.077200
     28 H2'A         0.8590    -0.6660    -2.3080 hc         1 3DT       0.077200
     29 H3           2.3130     1.0480    -1.4270 h1         1 3DT       0.036700
     30 HO3          3.7330     0.0350    -2.8430 ho         1 3DT       0.513000
     31 H4           3.5620    -1.0100     0.4170 h1         1 3DT       0.082700
     32 H5           4.3700     1.3500     0.3790 h1         1 3DT       0.028200
     33 H5'A         2.7510     1.9000     0.8200 h1         1 3DT       0.028200
     34 HO5          4.0880     1.5780     2.6890 ho         1 3DT       0.507000
@<TRIPOS>BOND
     1     1     2 1   
     2     1     8 1   
     3     1    11 1   
     4     2     3 2   
     5     2     4 1   
     6     4     5 1   
     7     4    10 1   
     8     5     6 2   
     9     5     7 1   
    10     7     8 2   
    11     7     9 1   
    12     8    19 1   
    13     9    20 1   
    14     9    21 1   
    15     9    22 1   
    16    10    23 1   
    17    10    24 1   
    18    10    25 1   
    19    11    12 1   
    20    11    16 1   
    21    11    26 1   
    22    12    13 1   
    23    12    27 1   
    24    12    28 1   
    25    13    14 1   
    26    13    15 1   
    27    13    29 1   
    28    14    30 1   
    29    15    16 1   
    30    15    17 1   
    31    15    31 1   
    32    17    18 1   
    33    17    32 1   
    34    17    33 1   
    35    18    34 1   
@<TRIPOS>SUBSTRUCTURE
     1 3DT         1 TEMP              0 ****  ****    0 ROOT
