@<TRIPOS>MOLECULE
3DV
   35    37     1     0     0
SMALL
No Charge or Current Charge


@<TRIPOS>ATOM
      1 O2           5.8880     2.3260     0.6880 o          1 3DV      -0.716000
      2 C11          5.6950     1.3050     0.0420 c          1 3DV       0.710600
      3 O1           6.5810     0.7470    -0.5920 o          1 3DV      -0.716000
      4 C8           4.2970     0.7040     0.0270 ca         1 3DV      -0.113600
      5 C7           3.2380     1.3090     0.7420 ca         1 3DV      -0.097500
      6 C6           1.9480     0.7530     0.7260 ca         1 3DV      -0.115500
      7 C9           4.0200    -0.4730    -0.7060 ca         1 3DV      -0.097500
      8 C10          2.7280    -1.0280    -0.7190 ca         1 3DV      -0.115500
      9 C5           1.6620    -0.4340     0.0040 cp         1 3DV      -0.199500
     10 C1           0.2730    -1.0240    -0.0100 cp         1 3DV       0.356500
     11 N2          -0.7510    -0.1240    -0.0320 nb         1 3DV      -0.623000
     12 C4          -2.0170    -0.6320    -0.0370 cp         1 3DV       0.286500
     13 C3          -2.2380    -2.0540    -0.0140 ca         1 3DV       0.332900
     14 N1          -1.2350    -2.9760     0.0270 nb         1 3DV      -0.744000
     15 C2          -0.0040    -2.4540     0.0280 ca         1 3DV       0.559900
     16 N3           0.8830    -3.4750     0.1240 nv         1 3DV      -1.047900
     17 C12         -3.1510     0.3670    -0.0790 cp         1 3DV      -0.071500
     18 C17         -4.4800     0.0060     0.2830 ca         1 3DV      -0.204000
     19 C16         -5.5280     0.9410     0.2390 ca         1 3DV       0.125100
     20 O3          -6.7890     0.5690     0.5930 oh         1 3DV      -0.544100
     21 C15         -5.2810     2.2600    -0.1630 ca         1 3DV      -0.150000
     22 C14         -3.9820     2.6490    -0.5210 ca         1 3DV      -0.084000
     23 C13         -2.9320     1.7160    -0.4770 ca         1 3DV      -0.110000
     24 H2           3.4130     2.2180     1.3140 ha         1 3DV       0.130500
     25 H3           1.1600     1.2460     1.2910 ha         1 3DV       0.099000
     26 H4           4.8070    -0.9600    -1.2770 ha         1 3DV       0.130500
     27 H5           2.5530    -1.9190    -1.3170 ha         1 3DV       0.099000
     28 H6          -3.2450    -2.4670    -0.0360 h4         1 3DV       0.012100
     29 H7           1.8060    -3.2600     0.4870 hn         1 3DV       0.480500
     30 H8           0.4870    -4.3710     0.3840 hn         1 3DV       0.480500
     31 H9          -4.7000    -1.0050     0.6130 ha         1 3DV       0.106000
     32 H10         -6.7740    -0.3790     0.8450 ho         1 3DV       0.458000
     33 H11         -6.0940     2.9810    -0.1950 ha         1 3DV       0.120000
     34 H12         -3.7880     3.6730    -0.8320 ha         1 3DV       0.113000
     35 H13         -1.9360     2.0460    -0.7650 ha         1 3DV       0.147000
@<TRIPOS>BOND
     1     1     2 1   
     2     2     3 1   
     3     2     4 1   
     4     4     5 ar  
     5     4     7 ar  
     6     5     6 ar  
     7     5    24 1   
     8     6     9 ar  
     9     6    25 1   
    10     7     8 ar  
    11     7    26 1   
    12     8     9 ar  
    13     8    27 1   
    14     9    10 1   
    15    10    11 ar  
    16    10    15 ar  
    17    11    12 ar  
    18    12    13 ar  
    19    12    17 1   
    20    13    14 ar  
    21    13    28 1   
    22    14    15 ar  
    23    15    16 1   
    24    16    29 1   
    25    16    30 1   
    26    17    18 ar  
    27    17    23 ar  
    28    18    19 ar  
    29    18    31 1   
    30    19    20 1   
    31    19    21 ar  
    32    20    32 1   
    33    21    22 ar  
    34    21    33 1   
    35    22    23 ar  
    36    22    34 1   
    37    23    35 1   
@<TRIPOS>SUBSTRUCTURE
     1 3DV         1 TEMP              0 ****  ****    0 ROOT
