@<TRIPOS>MOLECULE
3DV
   35    37     1     0     0
SMALL
bcc


@<TRIPOS>ATOM
      1 O2           5.6750     2.3880     0.6610 o          1 3DV      -0.821300
      2 C11          5.5350     1.3560    -0.0220 c          1 3DV       0.921200
      3 O1           6.4010     0.7970    -0.7210 o          1 3DV      -0.821300
      4 C8           4.1560     0.7080    -0.0020 ca         1 3DV      -0.113600
      5 C7           3.1220     1.2420     0.7640 ca         1 3DV      -0.115500
      6 C6           1.8670     0.6560     0.7800 ca         1 3DV      -0.133500
      7 C9           3.8920    -0.4320    -0.7550 ca         1 3DV      -0.115500
      8 C10          2.6410    -1.0300    -0.7380 ca         1 3DV      -0.133500
      9 C5           1.6090    -0.4950     0.0340 cp         1 3DV      -0.199500
     10 C1           0.2480    -1.0700     0.0320 cp         1 3DV       0.356500
     11 N2          -0.7560    -0.2220    -0.0050 nb         1 3DV      -0.623000
     12 C4          -2.0160    -0.6600    -0.0320 cp         1 3DV       0.286500
     13 C3          -2.2440    -2.0300    -0.0550 ca         1 3DV       0.332900
     14 N1          -1.2600    -2.9120     0.0240 nb         1 3DV      -0.744000
     15 C2          -0.0120    -2.4680     0.0970 ca         1 3DV       0.559900
     16 N3           0.9720    -3.3940     0.2090 nv         1 3DV      -0.937500
     17 C12         -3.0940     0.3450    -0.0720 cp         1 3DV      -0.071500
     18 C17         -4.4060     0.0030     0.2590 ca         1 3DV      -0.222000
     19 C16         -5.4210     0.9530     0.2090 ca         1 3DV       0.125100
     20 O3          -6.6980     0.6580     0.5250 oh         1 3DV      -0.505100
     21 C15         -5.1330     2.2620    -0.1680 ca         1 3DV      -0.168000
     22 C14         -3.8270     2.6000    -0.4870 ca         1 3DV      -0.102000
     23 C13         -2.8100     1.6600    -0.4410 ca         1 3DV      -0.128000
     24 H2           3.3020     2.1290     1.3570 ha         1 3DV       0.148500
     25 H3           1.0780     1.0910     1.3800 ha         1 3DV       0.117000
     26 H4           4.6740    -0.8570    -1.3700 ha         1 3DV       0.148500
     27 H5           2.4690    -1.9030    -1.3550 ha         1 3DV       0.117000
     28 H6          -3.2440    -2.4390    -0.1450 h4         1 3DV       0.012100
     29 H7           1.8630    -3.1160     0.5850 hn         1 3DV       0.425300
     30 H8           0.6780    -4.3220     0.4680 hn         1 3DV       0.425300
     31 H9          -4.6490    -1.0050     0.5770 ha         1 3DV       0.124000
     32 H10         -6.7790    -0.2700     0.7700 ho         1 3DV       0.419000
     33 H11         -5.9230     3.0010    -0.2050 ha         1 3DV       0.138000
     34 H12         -3.6000     3.6180    -0.7780 ha         1 3DV       0.131000
     35 H13         -1.7970     1.9400    -0.6960 ha         1 3DV       0.165000
@<TRIPOS>BOND
     1     1     2 1   
     2     2     3 1   
     3     2     4 1   
     4     4     5 ar  
     5     4     7 ar  
     6     5     6 ar  
     7     5    24 1   
     8     6     9 ar  
     9     6    25 1   
    10     7     8 ar  
    11     7    26 1   
    12     8     9 ar  
    13     8    27 1   
    14     9    10 1   
    15    10    11 ar  
    16    10    15 ar  
    17    11    12 ar  
    18    12    13 ar  
    19    12    17 1   
    20    13    14 ar  
    21    13    28 1   
    22    14    15 ar  
    23    15    16 1   
    24    16    29 1   
    25    16    30 1   
    26    17    18 ar  
    27    17    23 ar  
    28    18    19 ar  
    29    18    31 1   
    30    19    20 1   
    31    19    21 ar  
    32    20    32 1   
    33    21    22 ar  
    34    21    33 1   
    35    22    23 ar  
    36    22    34 1   
    37    23    35 1   
@<TRIPOS>SUBSTRUCTURE
     1 3DV         1 TEMP              0 ****  ****    0 ROOT
