@<TRIPOS>MOLECULE
3DW
   49    53     1     0     0
SMALL
bcc


@<TRIPOS>ATOM
      1 O2          -7.7180    -2.4630     1.0240 o          1 3DW      -0.806300
      2 C22         -6.4820    -2.4200     0.9140 c          1 3DW       0.824100
      3 O1          -5.6760    -3.3560     1.0910 o          1 3DW      -0.806300
      4 C9          -5.8690    -1.0780     0.5190 ca         1 3DW       0.332800
      5 N3          -6.7080    -0.0640     0.2610 nb         1 3DW      -0.604000
      6 C10         -6.2410     1.1210    -0.0820 ca         1 3DW       0.358200
      7 C7          -4.8730     1.3490    -0.1810 ca         1 3DW      -0.156500
      8 N2          -4.1730     2.4800    -0.5090 na         1 3DW      -0.283000
      9 C2          -2.8370     2.1990    -0.4650 ca         1 3DW       0.477800
     10 C8          -4.4890    -0.9390     0.4400 ca         1 3DW      -0.165300
     11 C6          -3.9740     0.3000     0.0850 cp         1 3DW      -0.078000
     12 C1          -2.6570     0.8470    -0.1020 cp         1 3DW      -0.178300
     13 C5          -1.3600     0.3750     0.0030 ca         1 3DW      -0.025000
     14 C4          -0.3120     1.2560    -0.2590 cp         1 3DW      -0.209300
     15 C3          -0.6380     2.5740    -0.6200 ca         1 3DW       0.431200
     16 N1          -1.8670     3.0570    -0.7230 nb         1 3DW      -0.713000
     17 C11          1.0960     0.8340    -0.1810 cp         1 3DW      -0.038000
     18 C16          2.0820     1.6790     0.3370 ca         1 3DW      -0.095000
     19 C15          3.4060     1.2930     0.4030 ca         1 3DW      -0.182000
     20 C14          3.8240     0.0330    -0.0540 ca         1 3DW       0.148600
     21 C13          2.8350    -0.8150    -0.5710 ca         1 3DW      -0.182000
     22 C12          1.5060    -0.4200    -0.6230 ca         1 3DW      -0.095000
     23 N4           5.1580    -0.3470     0.0420 nh         1 3DW      -0.653000
     24 C20          6.1670     0.6260    -0.3560 c6         1 3DW       0.200800
     25 C19          7.5340     0.2290     0.1600 c6         1 3DW       0.156800
     26 N5           7.8910    -1.0950    -0.3020 n3         1 3DW      -0.713600
     27 C21          9.2230    -1.4680     0.1150 c3         1 3DW       0.153100
     28 C18          6.9020    -2.0500     0.1490 c6         1 3DW       0.156800
     29 C17          5.5180    -1.6920    -0.3590 c6         1 3DW       0.200800
     30 H2          -6.9600     1.9090    -0.2830 h4         1 3DW      -0.000900
     31 H3          -4.5670     3.3760    -0.7480 hn         1 3DW       0.302700
     32 H4          -3.8450    -1.7800     0.6550 ha         1 3DW       0.163000
     33 H5          -1.1610    -0.6480     0.3010 ha         1 3DW       0.145000
     34 H6           0.1600     3.2710    -0.8540 h4         1 3DW       0.006100
     35 H7           1.8090     2.6510     0.7280 ha         1 3DW       0.132500
     36 H8           4.1160     1.9780     0.8460 ha         1 3DW       0.126000
     37 H9           3.0900    -1.7880    -0.9650 ha         1 3DW       0.126000
     38 H10          0.7840    -1.1040    -1.0540 ha         1 3DW       0.132500
     39 H11          6.2020     0.7170    -1.4510 h1         1 3DW       0.043950
     40 H12          5.9240     1.6090     0.0410 h1         1 3DW       0.043950
     41 H13          8.2680     0.9500    -0.2070 h1         1 3DW       0.037450
     42 H14          7.5380     0.2930     1.2630 h1         1 3DW       0.037450
     43 H16          9.3380    -1.5190     1.2090 h1         1 3DW       0.028700
     44 H17          9.4820    -2.4470    -0.2920 h1         1 3DW       0.028700
     45 H18          9.9490    -0.7460    -0.2630 h1         1 3DW       0.028700
     46 H19          7.1620    -3.0430    -0.2250 h1         1 3DW       0.037450
     47 H20          6.8750    -2.1160     1.2510 h1         1 3DW       0.037450
     48 H21          4.8120    -2.4030     0.0710 h1         1 3DW       0.043950
     49 H22          5.4840    -1.8110    -1.4530 h1         1 3DW       0.043950
@<TRIPOS>BOND
     1     1     2 1   
     2     2     3 1   
     3     2     4 1   
     4     4     5 ar  
     5     4    10 ar  
     6     5     6 ar  
     7     6     7 ar  
     8     6    30 1   
     9     7     8 1   
    10     7    11 ar  
    11     8     9 1   
    12     8    31 1   
    13     9    12 ar  
    14     9    16 ar  
    15    10    11 ar  
    16    10    32 1   
    17    11    12 1   
    18    12    13 ar  
    19    13    14 ar  
    20    13    33 1   
    21    14    15 ar  
    22    14    17 1   
    23    15    16 ar  
    24    15    34 1   
    25    17    18 ar  
    26    17    22 ar  
    27    18    19 ar  
    28    18    35 1   
    29    19    20 ar  
    30    19    36 1   
    31    20    21 ar  
    32    20    23 1   
    33    21    22 ar  
    34    21    37 1   
    35    22    38 1   
    36    23    24 1   
    37    23    29 1   
    38    24    25 1   
    39    24    39 1   
    40    24    40 1   
    41    25    26 1   
    42    25    41 1   
    43    25    42 1   
    44    26    27 1   
    45    26    28 1   
    46    27    43 1   
    47    27    44 1   
    48    27    45 1   
    49    28    29 1   
    50    28    46 1   
    51    28    47 1   
    52    29    48 1   
    53    29    49 1   
@<TRIPOS>SUBSTRUCTURE
     1 3DW         1 TEMP              0 ****  ****    0 ROOT
