@<TRIPOS>MOLECULE
3DW
   49    53     1     0     0
SMALL
No Charge or Current Charge


@<TRIPOS>ATOM
      1 O2          -7.4750    -2.9360     0.6660 o          1 3DW      -0.701000
      2 C22         -6.2770    -2.6790     0.5870 c          1 3DW       0.613500
      3 O1          -5.4230    -3.5560     0.6820 o          1 3DW      -0.701000
      4 C9          -5.8230    -1.2130     0.3610 ca         1 3DW       0.267500
      5 N3          -6.7750    -0.2140     0.2510 nb         1 3DW      -0.604000
      6 C10         -6.3750     1.0680     0.0530 ca         1 3DW       0.292900
      7 C7          -5.0120     1.3780    -0.0400 ca         1 3DW      -0.091200
      8 N2          -4.3230     2.5900    -0.2370 na         1 3DW      -0.333300
      9 C2          -2.9340     2.4290    -0.2620 ca         1 3DW       0.412500
     10 C8          -4.4300    -0.9270     0.2700 ca         1 3DW      -0.082000
     11 C6          -4.0360     0.4080     0.0650 cp         1 3DW      -0.078000
     12 C1          -2.7400     1.0550    -0.0740 cp         1 3DW      -0.113000
     13 C5          -1.4380     0.5320    -0.0420 ca         1 3DW      -0.007000
     14 C4          -0.3540     1.4360    -0.2050 cp         1 3DW      -0.144000
     15 C3          -0.6780     2.8160    -0.3900 ca         1 3DW       0.365900
     16 N1          -1.9410     3.3170    -0.4210 nb         1 3DW      -0.713000
     17 C11          1.0670     0.9630    -0.1850 cp         1 3DW      -0.038000
     18 C16          2.1060     1.7850     0.3170 ca         1 3DW      -0.077000
     19 C15          3.4390     1.3400     0.3340 ca         1 3DW      -0.164000
     20 C14          3.7810     0.0640    -0.1490 ca         1 3DW       0.287000
     21 C13          2.7560    -0.7630    -0.6490 ca         1 3DW      -0.164000
     22 C12          1.4210    -0.3210    -0.6680 ca         1 3DW      -0.077000
     23 N4           5.1300    -0.3620    -0.1200 nh         1 3DW      -0.791400
     24 C20          6.1990     0.4740    -0.7580 c6         1 3DW       0.200800
     25 C19          7.6240     0.1690    -0.1890 c6         1 3DW       0.156800
     26 N5           7.9710    -1.2840    -0.2370 n3         1 3DW      -0.713600
     27 C21          9.3340    -1.5620     0.2620 c3         1 3DW       0.153100
     28 C18          6.9230    -2.0760     0.4760 c6         1 3DW       0.156800
     29 C17          5.4820    -1.8190    -0.0790 c6         1 3DW       0.200800
     30 H2          -7.1490     1.8300    -0.0290 h4         1 3DW      -0.000900
     31 H3          -4.7670     3.4920    -0.3510 hn         1 3DW       0.353000
     32 H4          -3.6880    -1.7140     0.3570 ha         1 3DW       0.145000
     33 H5          -1.2760    -0.5300     0.1180 ha         1 3DW       0.127000
     34 H6           0.1140     3.5490    -0.5330 h4         1 3DW       0.006100
     35 H7           1.8780     2.7710     0.7130 ha         1 3DW       0.114500
     36 H8           4.2090     1.9890     0.7420 ha         1 3DW       0.108000
     37 H9           2.9860    -1.7480    -1.0420 ha         1 3DW       0.108000
     38 H10          0.6590    -0.9780    -1.0780 ha         1 3DW       0.114500
     39 H11          6.2080     0.2910    -1.8420 h1         1 3DW       0.043950
     40 H12          5.9950     1.5450    -0.6160 h1         1 3DW       0.043950
     41 H13          8.3590     0.7550    -0.7610 h1         1 3DW       0.037450
     42 H14          7.6670     0.5300     0.8490 h1         1 3DW       0.037450
     43 H16          9.4300    -1.2790     1.3190 h1         1 3DW       0.028700
     44 H17          9.5700    -2.6300     0.1680 h1         1 3DW       0.028700
     45 H18         10.0800    -0.9990    -0.3150 h1         1 3DW       0.028700
     46 H19          7.1390    -3.1520     0.3960 h1         1 3DW       0.037450
     47 H20          6.9300    -1.8280     1.5470 h1         1 3DW       0.037450
     48 H21          4.7690    -2.3650     0.5560 h1         1 3DW       0.043950
     49 H22          5.4150    -2.2460    -1.0900 h1         1 3DW       0.043950
@<TRIPOS>BOND
     1     1     2 1   
     2     2     3 1   
     3     2     4 1   
     4     4     5 ar  
     5     4    10 ar  
     6     5     6 ar  
     7     6     7 ar  
     8     6    30 1   
     9     7     8 1   
    10     7    11 ar  
    11     8     9 1   
    12     8    31 1   
    13     9    12 ar  
    14     9    16 ar  
    15    10    11 ar  
    16    10    32 1   
    17    11    12 1   
    18    12    13 ar  
    19    13    14 ar  
    20    13    33 1   
    21    14    15 ar  
    22    14    17 1   
    23    15    16 ar  
    24    15    34 1   
    25    17    18 ar  
    26    17    22 ar  
    27    18    19 ar  
    28    18    35 1   
    29    19    20 ar  
    30    19    36 1   
    31    20    21 ar  
    32    20    23 1   
    33    21    22 ar  
    34    21    37 1   
    35    22    38 1   
    36    23    24 1   
    37    23    29 1   
    38    24    25 1   
    39    24    39 1   
    40    24    40 1   
    41    25    26 1   
    42    25    41 1   
    43    25    42 1   
    44    26    27 1   
    45    26    28 1   
    46    27    43 1   
    47    27    44 1   
    48    27    45 1   
    49    28    29 1   
    50    28    46 1   
    51    28    47 1   
    52    29    48 1   
    53    29    49 1   
@<TRIPOS>SUBSTRUCTURE
     1 3DW         1 TEMP              0 ****  ****    0 ROOT
