@<TRIPOS>MOLECULE
3DX
   48    52     1     0     0
SMALL
bcc


@<TRIPOS>ATOM
      1 N6          -7.0150    -3.9870    -0.3890 n1         1 3DX      -0.353800
      2 C22         -6.6020    -2.9150    -0.3090 cg         1 3DX       0.139800
      3 C9          -6.0810    -1.5830    -0.2100 ca         1 3DX       0.448300
      4 N3          -6.9990    -0.6050    -0.1670 nb         1 3DX      -0.614000
      5 C10         -6.5970     0.6430    -0.0770 ca         1 3DX       0.389200
      6 C7          -5.2380     0.9540    -0.0260 ca         1 3DX      -0.109500
      7 N2          -4.6090     2.1580     0.0660 na         1 3DX      -0.266000
      8 C2          -3.2560     1.9520     0.0840 ca         1 3DX       0.477800
      9 C8          -4.7100    -1.3860    -0.1650 ca         1 3DX      -0.138300
     10 C6          -4.2740    -0.0740    -0.0690 cp         1 3DX      -0.061000
     11 C1          -2.9940     0.5710     0.0030 cp         1 3DX      -0.196300
     12 C5          -1.6710     0.1580    -0.0040 ca         1 3DX      -0.027000
     13 C4          -0.6810     1.1330     0.0780 cp         1 3DX      -0.163300
     14 C3          -1.0860     2.4770     0.1660 ca         1 3DX       0.447200
     15 N1          -2.3410     2.8990     0.1660 nb         1 3DX      -0.686000
     16 C11          0.7490     0.7830     0.0800 cp         1 3DX      -0.079000
     17 C16          1.2160    -0.3570     0.7290 ca         1 3DX      -0.082500
     18 C15          2.5600    -0.6940     0.7380 ca         1 3DX      -0.188000
     19 C14          3.5120     0.0960     0.0770 ca         1 3DX       0.179600
     20 C13          3.0380     1.2460    -0.5770 ca         1 3DX      -0.188000
     21 C12          1.6970     1.5760    -0.5710 ca         1 3DX      -0.082500
     22 N4           4.8560    -0.2440     0.0270 nh         1 3DX      -0.658000
     23 C20          5.2850    -1.4910     0.6280 c6         1 3DX       0.203300
     24 C19          6.6540    -1.8890     0.1060 c6         1 3DX       0.156300
     25 N5           7.6270    -0.8410     0.3230 n3         1 3DX      -0.714600
     26 C21          8.9490    -1.2420    -0.0980 c3         1 3DX       0.152100
     27 C18          7.1940     0.3720    -0.3370 c6         1 3DX       0.156300
     28 C17          5.8430     0.8130     0.1890 c6         1 3DX       0.203300
     29 H1          -7.3570     1.4160    -0.0440 h4         1 3DX       0.032100
     30 H2          -5.0580     3.0590     0.1130 hn         1 3DX       0.321700
     31 H3          -4.0240    -2.2220    -0.2030 ha         1 3DX       0.157000
     32 H4          -1.4150    -0.8910    -0.0890 ha         1 3DX       0.147000
     33 H5          -0.3320     3.2510     0.2570 h4         1 3DX       0.026100
     34 H6           0.5250    -0.9890     1.2740 ha         1 3DX       0.129000
     35 H7           2.8560    -1.5760     1.2870 ha         1 3DX       0.133500
     36 H8           3.7150     1.8800    -1.1320 ha         1 3DX       0.133500
     37 H9           1.3840     2.4580    -1.1170 ha         1 3DX       0.129000
     38 H10          5.3120    -1.4230     1.7260 h1         1 3DX       0.046200
     39 H11          4.5870    -2.2860     0.3640 h1         1 3DX       0.046200
     40 H12          6.9750    -2.7930     0.6300 h1         1 3DX       0.040700
     41 H13          6.5680    -2.1490    -0.9630 h1         1 3DX       0.040700
     42 H15          9.0110    -1.4790    -1.1720 h1         1 3DX       0.032367
     43 H16          9.6650    -0.4450     0.1080 h1         1 3DX       0.032367
     44 H17          9.2650    -2.1270     0.4560 h1         1 3DX       0.032367
     45 H18          7.9200     1.1660    -0.1480 h1         1 3DX       0.040700
     46 H19          7.1300     0.2430    -1.4320 h1         1 3DX       0.040700
     47 H20          5.5380     1.7050    -0.3520 h1         1 3DX       0.046200
     48 H21          5.9370     1.0910     1.2490 h1         1 3DX       0.046200
@<TRIPOS>BOND
     1     1     2 3   
     2     2     3 1   
     3     3     4 ar  
     4     3     9 ar  
     5     4     5 ar  
     6     5     6 ar  
     7     5    29 1   
     8     6     7 1   
     9     6    10 ar  
    10     7     8 1   
    11     7    30 1   
    12     8    11 ar  
    13     8    15 ar  
    14     9    10 ar  
    15     9    31 1   
    16    10    11 1   
    17    11    12 ar  
    18    12    13 ar  
    19    12    32 1   
    20    13    14 ar  
    21    13    16 1   
    22    14    15 ar  
    23    14    33 1   
    24    16    17 ar  
    25    16    21 ar  
    26    17    18 ar  
    27    17    34 1   
    28    18    19 ar  
    29    18    35 1   
    30    19    20 ar  
    31    19    22 1   
    32    20    21 ar  
    33    20    36 1   
    34    21    37 1   
    35    22    23 1   
    36    22    28 1   
    37    23    24 1   
    38    23    38 1   
    39    23    39 1   
    40    24    25 1   
    41    24    40 1   
    42    24    41 1   
    43    25    26 1   
    44    25    27 1   
    45    26    42 1   
    46    26    43 1   
    47    26    44 1   
    48    27    28 1   
    49    27    45 1   
    50    27    46 1   
    51    28    47 1   
    52    28    48 1   
@<TRIPOS>SUBSTRUCTURE
     1 3DX         1 TEMP              0 ****  ****    0 ROOT
