@<TRIPOS>MOLECULE
3DX
   48    52     1     0     0
SMALL
No Charge or Current Charge


@<TRIPOS>ATOM
      1 N6          -6.7480    -4.2060     0.1530 n1         1 3DX      -0.443000
      2 C22         -6.4440    -3.0770     0.1000 cg         1 3DX       0.229000
      3 C9          -6.0550    -1.6870     0.0350 ca         1 3DX       0.383000
      4 N3          -7.0630    -0.7570    -0.0280 nb         1 3DX      -0.614000
      5 C10         -6.7290     0.5600    -0.0900 ca         1 3DX       0.323900
      6 C7          -5.3800     0.9500    -0.0890 ca         1 3DX      -0.044200
      7 N2          -4.7520     2.2080    -0.1430 na         1 3DX      -0.316300
      8 C2          -3.3560     2.1230    -0.1180 ca         1 3DX       0.412500
      9 C8          -4.6800    -1.3420     0.0390 ca         1 3DX      -0.055000
     10 C6          -4.3540     0.0250    -0.0250 cp         1 3DX      -0.061000
     11 C1          -3.0920     0.7500    -0.0420 cp         1 3DX      -0.131000
     12 C5          -1.7650     0.2950    -0.0010 ca         1 3DX      -0.009000
     13 C4          -0.7270     1.2630    -0.0380 cp         1 3DX      -0.098000
     14 C3          -1.1210     2.6350    -0.1170 ca         1 3DX       0.381900
     15 N1          -2.4090     3.0720    -0.1560 nb         1 3DX      -0.686000
     16 C11          0.7170     0.8630     0.0020 cp         1 3DX      -0.079000
     17 C16          1.1420    -0.2830     0.7180 ca         1 3DX      -0.064500
     18 C15          2.4960    -0.6560     0.7560 ca         1 3DX      -0.170000
     19 C14          3.4710     0.1040     0.0810 ca         1 3DX       0.318000
     20 C13          3.0600     1.2420    -0.6340 ca         1 3DX      -0.170000
     21 C12          1.7060     1.6190    -0.6740 ca         1 3DX      -0.064500
     22 N4           4.8390    -0.2560     0.1060 nh         1 3DX      -0.796400
     23 C20          5.2660    -1.6750     0.3340 c6         1 3DX       0.203300
     24 C19          6.7140    -1.9590    -0.1870 c6         1 3DX       0.156300
     25 N5           7.7240    -0.9950     0.3470 n3         1 3DX      -0.714600
     26 C21          9.0970    -1.2930    -0.1140 c3         1 3DX       0.152100
     27 C18          7.3010     0.4050     0.0340 c6         1 3DX       0.156300
     28 C17          5.8650     0.7380     0.5590 c6         1 3DX       0.203300
     29 H1          -7.5390     1.2860    -0.1400 h4         1 3DX       0.032100
     30 H2          -5.2400     3.0930    -0.1960 hn         1 3DX       0.372000
     31 H3          -3.9090    -2.1050     0.0910 ha         1 3DX       0.139000
     32 H4          -1.5490    -0.7700     0.0430 ha         1 3DX       0.129000
     33 H5          -0.3660     3.4200    -0.1350 h4         1 3DX       0.026100
     34 H6           0.4190    -0.8830     1.2660 ha         1 3DX       0.111000
     35 H7           2.7830    -1.5340     1.3270 ha         1 3DX       0.115500
     36 H8           3.7910     1.8330    -1.1770 ha         1 3DX       0.115500
     37 H9           1.4240     2.4970    -1.2510 ha         1 3DX       0.111000
     38 H10          5.2300    -1.9050     1.4090 h1         1 3DX       0.046200
     39 H11          4.5780    -2.3660    -0.1740 h1         1 3DX       0.046200
     40 H12          6.9870    -2.9880     0.0880 h1         1 3DX       0.040700
     41 H13          6.7000    -1.9170    -1.2870 h1         1 3DX       0.040700
     42 H15          9.1710    -1.2090    -1.2070 h1         1 3DX       0.032367
     43 H16          9.8160    -0.5940     0.3350 h1         1 3DX       0.032367
     44 H17          9.3900    -2.3110     0.1740 h1         1 3DX       0.032367
     45 H18          8.0070     1.1230     0.4740 h1         1 3DX       0.040700
     46 H19          7.3170     0.5670    -1.0540 h1         1 3DX       0.040700
     47 H20          5.6050     1.7520     0.2240 h1         1 3DX       0.046200
     48 H21          5.8920     0.7600     1.6590 h1         1 3DX       0.046200
@<TRIPOS>BOND
     1     1     2 3   
     2     2     3 1   
     3     3     4 ar  
     4     3     9 ar  
     5     4     5 ar  
     6     5     6 ar  
     7     5    29 1   
     8     6     7 1   
     9     6    10 ar  
    10     7     8 1   
    11     7    30 1   
    12     8    11 ar  
    13     8    15 ar  
    14     9    10 ar  
    15     9    31 1   
    16    10    11 1   
    17    11    12 ar  
    18    12    13 ar  
    19    12    32 1   
    20    13    14 ar  
    21    13    16 1   
    22    14    15 ar  
    23    14    33 1   
    24    16    17 ar  
    25    16    21 ar  
    26    17    18 ar  
    27    17    34 1   
    28    18    19 ar  
    29    18    35 1   
    30    19    20 ar  
    31    19    22 1   
    32    20    21 ar  
    33    20    36 1   
    34    21    37 1   
    35    22    23 1   
    36    22    28 1   
    37    23    24 1   
    38    23    38 1   
    39    23    39 1   
    40    24    25 1   
    41    24    40 1   
    42    24    41 1   
    43    25    26 1   
    44    25    27 1   
    45    26    42 1   
    46    26    43 1   
    47    26    44 1   
    48    27    28 1   
    49    27    45 1   
    50    27    46 1   
    51    28    47 1   
    52    28    48 1   
@<TRIPOS>SUBSTRUCTURE
     1 3DX         1 TEMP              0 ****  ****    0 ROOT
