@<TRIPOS>MOLECULE
3DY
   21    22     1     0     0
SMALL
No Charge or Current Charge


@<TRIPOS>ATOM
      1 C1          23.5770    78.0400   -29.2450 c6         1 3DY       0.367300
      2 C2          22.2260    77.2260   -29.3480 c6         1 3DY       0.083300
      3 C3          21.9900    76.7140   -30.8070 c5         1 3DY       0.132300
      4 C4          22.0090    77.8990   -31.8220 c5         1 3DY       0.107300
      5 C5          23.5430    78.1570   -31.7710 c5         1 3DY       0.142300
      6 C6          24.0950    76.6950   -31.8700 c5         1 3DY       0.122600
      7 O1          24.6880    77.1840   -28.9690 oh         1 3DY      -0.671000
      8 O2          21.0930    78.0490   -28.9750 oh         1 3DY      -0.711000
      9 O3          23.0760    75.8550   -31.2550 os         1 3DY      -0.444000
     10 O4          21.5380    77.5440   -33.1400 oh         1 3DY      -0.706000
     11 O5          23.8940    78.7520   -30.4710 os         1 3DY      -0.427000
     12 H1          22.2820    76.3530   -28.6800 h1         1 3DY       0.048700
     13 H2          21.0450    76.1540   -30.8350 h1         1 3DY       0.089700
     14 H3          21.4540    78.7710   -31.4450 h1         1 3DY       0.081700
     15 H4          23.8980    78.8050   -32.5840 h1         1 3DY       0.109700
     16 H5          24.2050    76.3910   -32.9190 h1         1 3DY       0.070200
     17 H6          25.0650    76.5600   -31.3770 h1         1 3DY       0.070200
     18 H7          21.0790    78.1120   -27.9890 ho         1 3DY       0.508000
     19 H8          20.5730    77.3540   -33.0670 ho         1 3DY       0.512000
     20 H9          23.4940    78.7710   -28.4260 h2         1 3DY       0.056700
     21 H10         24.5150    76.7920   -28.0870 ho         1 3DY       0.456000
@<TRIPOS>BOND
     1     1     2 1   
     2     1     7 1   
     3     1    11 1   
     4     1    20 1   
     5     2     3 1   
     6     2     8 1   
     7     2    12 1   
     8     3     4 1   
     9     3     9 1   
    10     3    13 1   
    11     4     5 1   
    12     4    10 1   
    13     4    14 1   
    14     5     6 1   
    15     5    11 1   
    16     5    15 1   
    17     6     9 1   
    18     6    16 1   
    19     6    17 1   
    20     7    21 1   
    21     8    18 1   
    22    10    19 1   
@<TRIPOS>SUBSTRUCTURE
     1 3DY         1 TEMP              0 ****  ****    0 ROOT
