@<TRIPOS>MOLECULE
3DY
   21    22     1     0     0
SMALL
bcc


@<TRIPOS>ATOM
      1 C1          23.5500    78.0300   -29.2890 c6         1 3DY       0.320900
      2 C2          22.2320    77.2190   -29.3670 c6         1 3DY       0.060100
      3 C3          21.9900    76.7100   -30.7890 c5         1 3DY       0.109100
      4 C4          22.0170    77.8980   -31.7480 c5         1 3DY       0.084100
      5 C5          23.5240    78.1310   -31.6980 c5         1 3DY       0.119100
      6 C6          24.0350    76.7060   -31.8590 c5         1 3DY       0.099400
      7 O1          24.6610    77.2240   -29.0020 oh         1 3DY      -0.608800
      8 O2          21.1190    78.0120   -29.0300 oh         1 3DY      -0.588800
      9 O3          23.0700    75.8900   -31.1990 os         1 3DY      -0.397600
     10 O4          21.6530    77.5560   -33.0590 oh         1 3DY      -0.583800
     11 O5          23.8450    78.7370   -30.4550 os         1 3DY      -0.380600
     12 H1          22.3140    76.3580   -28.6890 h1         1 3DY       0.048700
     13 H2          21.0640    76.1290   -30.8310 h1         1 3DY       0.089700
     14 H3          21.4560    78.7620   -31.3790 h1         1 3DY       0.081700
     15 H4          23.8980    78.8040   -32.4710 h1         1 3DY       0.109700
     16 H5          24.0860    76.4460   -32.9200 h1         1 3DY       0.070200
     17 H6          25.0260    76.5560   -31.4280 h1         1 3DY       0.070200
     18 H7          21.1610    78.2250   -28.0920 ho         1 3DY       0.409000
     19 H8          20.7300    77.2840   -33.0570 ho         1 3DY       0.413000
     20 H9          23.4290    78.7950   -28.5080 h2         1 3DY       0.056700
     21 H10         24.4780    76.7060   -28.2110 ho         1 3DY       0.417000
@<TRIPOS>BOND
     1     1     2 1   
     2     1     7 1   
     3     1    11 1   
     4     1    20 1   
     5     2     3 1   
     6     2     8 1   
     7     2    12 1   
     8     3     4 1   
     9     3     9 1   
    10     3    13 1   
    11     4     5 1   
    12     4    10 1   
    13     4    14 1   
    14     5     6 1   
    15     5    11 1   
    16     5    15 1   
    17     6     9 1   
    18     6    16 1   
    19     6    17 1   
    20     7    21 1   
    21     8    18 1   
    22    10    19 1   
@<TRIPOS>SUBSTRUCTURE
     1 3DY         1 TEMP              0 ****  ****    0 ROOT
