@<TRIPOS>MOLECULE
3DZ
   52    53     1     0     0
SMALL
No Charge or Current Charge


@<TRIPOS>ATOM
      1 OAA         -2.0900     1.4290     1.6390 o          1 3DZ      -0.746000
      2 CAB         -1.9480     1.1660     0.4520 c          1 3DZ       0.735000
      3 OAC         -1.9750     2.0160    -0.4270 o          1 3DZ      -0.746000
      4 CAD         -1.7760    -0.3250     0.0280 c3         1 3DZ      -0.145700
      5 CAE         -3.0230    -1.1650     0.4140 c3         1 3DZ      -0.020100
      6 CAF         -4.3000    -0.6830    -0.2650 ca         1 3DZ      -0.019300
      7 CAK         -4.5570    -1.0180    -1.6080 ca         1 3DZ      -0.113000
      8 CAJ         -5.7350    -0.5770    -2.2350 ca         1 3DZ      -0.138000
      9 CAI         -6.6620     0.2010    -1.5230 ca         1 3DZ      -0.118000
     10 CAH         -6.4190     0.5440    -0.1780 ca         1 3DZ      -0.104300
     11 CAZ         -7.4170     1.3970     0.5920 c3         1 3DZ       0.196100
     12 NBA         -8.4370     0.5670     1.2610 n8         1 3DZ      -1.003200
     13 CAG         -5.2340     0.0980     0.4440 ca         1 3DZ      -0.073000
     14 CAL         -0.4580    -0.9800     0.5700 c3         1 3DZ      -0.402400
     15 PAM          1.1290    -0.1450     0.0840 p5         1 3DZ       1.359000
     16 OAN          1.1980    -0.0380    -1.4090 o          1 3DZ      -0.807500
     17 OAO          1.2460     1.1770     0.7750 o          1 3DZ      -0.807500
     18 CAP          2.4750    -1.3660     0.7330 c3         1 3DZ      -0.189500
     19 NAQ          2.2720    -2.8780     0.6970 n8         1 3DZ      -1.008200
     20 CAR          3.8880    -1.0530     0.1520 c3         1 3DZ      -0.026400
     21 CAS          4.4330     0.3640     0.4510 c3         1 3DZ      -0.058100
     22 CAT          5.8820     0.5250     0.0100 ca         1 3DZ      -0.032300
     23 CAU          6.9320     0.3560     0.9340 ca         1 3DZ      -0.111000
     24 CAY          6.1840     0.8400    -1.3300 ca         1 3DZ      -0.111000
     25 CAX          7.5210     0.9870    -1.7400 ca         1 3DZ      -0.124500
     26 CAW          8.5630     0.8190    -0.8140 ca         1 3DZ      -0.145000
     27 CAV          8.2690     0.5030     0.5230 ca         1 3DZ      -0.124500
     28 H2          -1.7030    -0.3410    -1.0660 hc         1 3DZ       0.047700
     29 H3          -2.8460    -2.2120     0.1380 hc         1 3DZ       0.021200
     30 H4          -3.1430    -1.1610     1.5040 hc         1 3DZ       0.021200
     31 H5          -3.8430    -1.6200    -2.1650 ha         1 3DZ       0.102000
     32 H6          -5.9280    -0.8390    -3.2720 ha         1 3DZ       0.080000
     33 H7          -7.5720     0.5390    -2.0150 ha         1 3DZ       0.093000
     34 H8          -6.8890     1.9910     1.3520 h1         1 3DZ       0.036700
     35 H9          -7.9200     2.0940    -0.0940 h1         1 3DZ       0.036700
     36 H10         -7.9670    -0.0440     1.9380 hn         1 3DZ       0.376000
     37 H11         -9.0290     1.1720     1.8410 hn         1 3DZ       0.376000
     38 H13         -5.0370     0.3630     1.4810 ha         1 3DZ       0.137000
     39 H14         -0.4820    -1.0180     1.6650 hc         1 3DZ       0.019200
     40 H15         -0.3960    -2.0130     0.2100 hc         1 3DZ       0.019200
     41 H17          2.5040    -1.1000     1.7970 h1         1 3DZ       0.042700
     42 H18          1.3740    -3.1200     1.1390 hn         1 3DZ       0.381500
     43 H19          2.1490    -3.1930    -0.2750 hn         1 3DZ       0.381500
     44 H21          4.6060    -1.7760     0.5600 hc         1 3DZ       0.025700
     45 H22          3.8770    -1.2080    -0.9350 hc         1 3DZ       0.025700
     46 H23          3.8180     1.1160    -0.0560 hc         1 3DZ       0.077200
     47 H24          4.3420     0.5660     1.5260 hc         1 3DZ       0.077200
     48 H25          6.7130     0.1090     1.9700 ha         1 3DZ       0.120500
     49 H26          5.3820     0.9700    -2.0530 ha         1 3DZ       0.120500
     50 H27          7.7480     1.2300    -2.7760 ha         1 3DZ       0.090500
     51 H28          9.5970     0.9320    -1.1310 ha         1 3DZ       0.085000
     52 H29          9.0750     0.3710     1.2410 ha         1 3DZ       0.090500
@<TRIPOS>BOND
     1     1     2 1   
     2     2     3 1   
     3     2     4 1   
     4     4     5 1   
     5     4    14 1   
     6     4    28 1   
     7     5     6 1   
     8     5    29 1   
     9     5    30 1   
    10     6     7 ar  
    11     6    13 ar  
    12     7     8 ar  
    13     7    31 1   
    14     8     9 ar  
    15     8    32 1   
    16     9    10 ar  
    17     9    33 1   
    18    10    11 1   
    19    10    13 ar  
    20    11    12 1   
    21    11    34 1   
    22    11    35 1   
    23    12    36 1   
    24    12    37 1   
    25    13    38 1   
    26    14    15 1   
    27    14    39 1   
    28    14    40 1   
    29    15    16 1   
    30    15    17 1   
    31    15    18 1   
    32    18    19 1   
    33    18    20 1   
    34    18    41 1   
    35    19    42 1   
    36    19    43 1   
    37    20    21 1   
    38    20    44 1   
    39    20    45 1   
    40    21    22 1   
    41    21    46 1   
    42    21    47 1   
    43    22    23 ar  
    44    22    24 ar  
    45    23    27 ar  
    46    23    48 1   
    47    24    25 ar  
    48    24    49 1   
    49    25    26 ar  
    50    25    50 1   
    51    26    27 ar  
    52    26    51 1   
    53    27    52 1   
@<TRIPOS>SUBSTRUCTURE
     1 3DZ         1 TEMP              0 ****  ****    0 ROOT
