@<TRIPOS>MOLECULE
3DZ
   52    53     1     0     0
SMALL
abcg2


@<TRIPOS>ATOM
      1 OAA         -1.8410     1.2060     1.5090 o          1 3DZ      -0.746000
      2 CAB         -1.8600     0.9550     0.2840 c          1 3DZ       0.735000
      3 OAC         -2.0510     1.7770    -0.6320 o          1 3DZ      -0.746000
      4 CAD         -1.6990    -0.5270    -0.1060 c3         1 3DZ      -0.145700
      5 CAE         -2.9140    -1.3250     0.4010 c3         1 3DZ      -0.020100
      6 CAF         -4.2260    -0.8530    -0.1560 ca         1 3DZ      -0.019300
      7 CAK         -4.7290    -1.3810    -1.3420 ca         1 3DZ      -0.113000
      8 CAJ         -5.9400    -0.9350    -1.8580 ca         1 3DZ      -0.138000
      9 CAI         -6.6650     0.0440    -1.1960 ca         1 3DZ      -0.118000
     10 CAH         -6.1780     0.5960    -0.0120 ca         1 3DZ      -0.104300
     11 CAZ         -6.9470     1.6770     0.7040 c3         1 3DZ       0.196100
     12 NBA         -8.3470     1.3190     0.8650 n8         1 3DZ      -1.003200
     13 CAG         -4.9670     0.1370     0.4910 ca         1 3DZ      -0.073000
     14 CAL         -0.4200    -1.1450     0.4590 c3         1 3DZ      -0.402400
     15 PAM          1.1100    -0.4920    -0.3270 p5         1 3DZ       1.359000
     16 OAN          1.1370    -0.9510    -1.7780 o          1 3DZ      -0.807500
     17 OAO          1.2270     0.9930    -0.0350 o          1 3DZ      -0.807500
     18 CAP          2.4530    -1.4310     0.5570 c3         1 3DZ      -0.189500
     19 NAQ          2.3180    -2.8820     0.3810 n8         1 3DZ      -1.008200
     20 CAR          3.8520    -1.0170     0.0920 c3         1 3DZ      -0.026400
     21 CAS          4.2930     0.3810     0.5300 c3         1 3DZ      -0.058100
     22 CAT          5.7200     0.6540     0.1470 ca         1 3DZ      -0.032300
     23 CAU          6.7730     0.2350     0.9600 ca         1 3DZ      -0.111000
     24 CAY          6.0280     1.2980    -1.0500 ca         1 3DZ      -0.111000
     25 CAX          7.3470     1.5200    -1.4250 ca         1 3DZ      -0.124500
     26 CAW          8.3850     1.0980    -0.6050 ca         1 3DZ      -0.145000
     27 CAV          8.0930     0.4540     0.5910 ca         1 3DZ      -0.124500
     28 H2          -1.6760    -0.6090    -1.1980 hc         1 3DZ       0.047700
     29 H3          -2.7710    -2.3780     0.1450 hc         1 3DZ       0.021200
     30 H4          -2.9330    -1.2680     1.4920 hc         1 3DZ       0.021200
     31 H5          -4.1720    -2.1520    -1.8610 ha         1 3DZ       0.102000
     32 H6          -6.3220    -1.3600    -2.7780 ha         1 3DZ       0.080000
     33 H7          -7.6160     0.3780    -1.5920 ha         1 3DZ       0.093000
     34 H8          -6.4340     1.9090     1.6470 h1         1 3DZ       0.036700
     35 H9          -6.9070     2.5940     0.1070 h1         1 3DZ       0.036700
     36 H10         -8.4250     0.5560     1.5260 hn         1 3DZ       0.376000
     37 H11         -8.8470     2.0970     1.2770 hn         1 3DZ       0.376000
     38 H13         -4.5790     0.5620     1.4110 ha         1 3DZ       0.137000
     39 H14         -0.3810    -0.9750     1.5390 hc         1 3DZ       0.019200
     40 H15         -0.4550    -2.2290     0.3120 hc         1 3DZ       0.019200
     41 H17          2.3780    -1.2230     1.6310 h1         1 3DZ       0.042700
     42 H18          1.4890    -3.2090     0.8600 hn         1 3DZ       0.381500
     43 H19          2.1500    -3.0670    -0.6030 hn         1 3DZ       0.381500
     44 H21          4.5600    -1.7500     0.4920 hc         1 3DZ       0.025700
     45 H22          3.9140    -1.0970    -0.9990 hc         1 3DZ       0.025700
     46 H23          3.6340     1.1290     0.0900 hc         1 3DZ       0.077200
     47 H24          4.1820     0.4640     1.6150 hc         1 3DZ       0.077200
     48 H25          6.5520    -0.2680     1.8950 ha         1 3DZ       0.120500
     49 H26          5.2230     1.6360    -1.6940 ha         1 3DZ       0.120500
     50 H27          7.5640     2.0250    -2.3580 ha         1 3DZ       0.090500
     51 H28          9.4140     1.2700    -0.8950 ha         1 3DZ       0.085000
     52 H29          8.8950     0.1270     1.2410 ha         1 3DZ       0.090500
@<TRIPOS>BOND
     1     1     2 1   
     2     2     3 1   
     3     2     4 1   
     4     4     5 1   
     5     4    14 1   
     6     4    28 1   
     7     5     6 1   
     8     5    29 1   
     9     5    30 1   
    10     6     7 ar  
    11     6    13 ar  
    12     7     8 ar  
    13     7    31 1   
    14     8     9 ar  
    15     8    32 1   
    16     9    10 ar  
    17     9    33 1   
    18    10    11 1   
    19    10    13 ar  
    20    11    12 1   
    21    11    34 1   
    22    11    35 1   
    23    12    36 1   
    24    12    37 1   
    25    13    38 1   
    26    14    15 1   
    27    14    39 1   
    28    14    40 1   
    29    15    16 1   
    30    15    17 1   
    31    15    18 1   
    32    18    19 1   
    33    18    20 1   
    34    18    41 1   
    35    19    42 1   
    36    19    43 1   
    37    20    21 1   
    38    20    44 1   
    39    20    45 1   
    40    21    22 1   
    41    21    46 1   
    42    21    47 1   
    43    22    23 ar  
    44    22    24 ar  
    45    23    27 ar  
    46    23    48 1   
    47    24    25 ar  
    48    24    49 1   
    49    25    26 ar  
    50    25    50 1   
    51    26    27 ar  
    52    26    51 1   
    53    27    52 1   
@<TRIPOS>SUBSTRUCTURE
     1 3DZ         1 TEMP              0 ****  ****    0 ROOT
