@<TRIPOS>MOLECULE
3E0
   35    37     1     0     0
SMALL
No Charge or Current Charge


@<TRIPOS>ATOM
      1 CAP          4.0370     0.7810    -0.0700 c6         1 3E0       0.170800
      2 CAQ          5.2070    -0.1440     0.3760 c6         1 3E0       0.145600
      3 OAR          5.1330    -1.4260    -0.2860 os         1 3E0      -0.442000
      4 CAS          3.9060    -2.1290     0.0110 c6         1 3E0       0.145600
      5 CAT          2.6700    -1.3070    -0.4560 c6         1 3E0       0.170800
      6 NAO          2.6980     0.1120     0.0390 nh         1 3E0      -0.747300
      7 CAL          1.5310     0.8380     0.2030 cc         1 3E0       0.701300
      8 NAK          0.3470     0.2670     0.1190 nd         1 3E0      -0.699000
      9 SAM          1.5260     2.5550     0.5190 ss         1 3E0      -0.103400
     10 CAN         -0.2110     2.4790     0.5270 cc         1 3E0      -0.279000
     11 CAJ         -0.6700     1.1910     0.3200 cd         1 3E0       0.377500
     12 CAI         -2.1160     0.8170     0.2470 ca         1 3E0      -0.121500
     13 CAH         -3.0910     1.8490     0.2450 ca         1 3E0      -0.103000
     14 CAG         -4.4630     1.5690     0.1530 ca         1 3E0      -0.098000
     15 CAF         -4.9060     0.2450     0.0640 ca         1 3E0      -0.138000
     16 CAB         -3.9720    -0.7980     0.0600 ca         1 3E0       0.149000
     17 FAA         -4.4330    -2.0700     0.0140 f          1 3E0      -0.168000
     18 CAC         -2.5820    -0.5310     0.1380 ca         1 3E0       0.099100
     19 OAD         -1.7000    -1.5920     0.1670 os         1 3E0      -0.332100
     20 CAE         -1.5560    -2.4440    -0.9830 c3         1 3E0       0.153900
     21 H1           4.0820     1.6880     0.5480 h1         1 3E0       0.061450
     22 H2           4.2110     1.0930    -1.1110 h1         1 3E0       0.061450
     23 H3           6.1690     0.3310     0.1360 h1         1 3E0       0.056700
     24 H4           5.1670    -0.2970     1.4640 h1         1 3E0       0.056700
     25 H5           3.9170    -3.1050    -0.4940 h1         1 3E0       0.056700
     26 H6           3.8450    -2.3080     1.0950 h1         1 3E0       0.056700
     27 H7           2.6370    -1.3140    -1.5550 h1         1 3E0       0.061450
     28 H8           1.7700    -1.8330    -0.1080 h1         1 3E0       0.061450
     29 H9          -0.7680     3.3880     0.6990 h4         1 3E0       0.162000
     30 H10         -2.8000     2.8940     0.3050 ha         1 3E0       0.121000
     31 H11         -5.1850     2.3840     0.1550 ha         1 3E0       0.120000
     32 H12         -5.9690     0.0250     0.0050 ha         1 3E0       0.133000
     33 H13         -0.7790    -3.1970    -0.8020 h1         1 3E0       0.036367
     34 H14         -2.4900    -2.9710    -1.2130 h1         1 3E0       0.036367
     35 H15         -1.2640    -1.8570    -1.8620 h1         1 3E0       0.036367
@<TRIPOS>BOND
     1     1     2 1   
     2     1     6 1   
     3     1    21 1   
     4     1    22 1   
     5     2     3 1   
     6     2    23 1   
     7     2    24 1   
     8     3     4 1   
     9     4     5 1   
    10     4    25 1   
    11     4    26 1   
    12     5     6 1   
    13     5    27 1   
    14     5    28 1   
    15     6     7 1   
    16     7     8 2   
    17     7     9 1   
    18     8    11 1   
    19     9    10 1   
    20    10    11 2   
    21    10    29 1   
    22    11    12 1   
    23    12    13 ar  
    24    12    18 ar  
    25    13    14 ar  
    26    13    30 1   
    27    14    15 ar  
    28    14    31 1   
    29    15    16 ar  
    30    15    32 1   
    31    16    17 1   
    32    16    18 ar  
    33    18    19 1   
    34    19    20 1   
    35    20    33 1   
    36    20    34 1   
    37    20    35 1   
@<TRIPOS>SUBSTRUCTURE
     1 3E0         1 TEMP              0 ****  ****    0 ROOT
