@<TRIPOS>MOLECULE
3E0
   35    37     1     0     0
SMALL
abcg2


@<TRIPOS>ATOM
      1 CAP          3.8620     0.4800    -0.4020 c6         1 3E0       0.170800
      2 CAQ          5.0940    -0.1270     0.2430 c6         1 3E0       0.145600
      3 OAR          5.0280    -1.5330     0.2730 os         1 3E0      -0.442000
      4 CAS          3.9160    -1.9510     1.0300 c6         1 3E0       0.145600
      5 CAT          2.6120    -1.4620     0.4330 c6         1 3E0       0.170800
      6 NAO          2.6610    -0.0190     0.2460 nh         1 3E0      -0.747300
      7 CAL          1.4810     0.6150     0.0340 cc         1 3E0       0.701300
      8 NAK          0.3170     0.1020     0.2860 nd         1 3E0      -0.699000
      9 SAM          1.4240     2.2490    -0.5910 ss         1 3E0      -0.103400
     10 CAN         -0.2950     2.1980    -0.4690 cc         1 3E0      -0.279000
     11 CAJ         -0.6880     0.9890     0.0070 cd         1 3E0       0.377500
     12 CAI         -2.0950     0.6120     0.2150 ca         1 3E0      -0.121500
     13 CAH         -2.9780     1.5240     0.7950 ca         1 3E0      -0.103000
     14 CAG         -4.3090     1.2030     1.0040 ca         1 3E0      -0.098000
     15 CAF         -4.7880    -0.0490     0.6440 ca         1 3E0      -0.138000
     16 CAB         -3.9140    -0.9440     0.0640 ca         1 3E0       0.149000
     17 FAA         -4.3630    -2.1510    -0.3080 f          1 3E0      -0.168000
     18 CAC         -2.5730    -0.6490    -0.1580 ca         1 3E0       0.099100
     19 OAD         -1.7930    -1.5980    -0.7230 os         1 3E0      -0.332100
     20 CAE         -1.4470    -1.3730    -2.0830 c3         1 3E0       0.153900
     21 H1           3.9280     1.5640    -0.2840 h1         1 3E0       0.061450
     22 H2           3.8460     0.2590    -1.4770 h1         1 3E0       0.061450
     23 H3           5.9760     0.1550    -0.3330 h1         1 3E0       0.056700
     24 H4           5.2110     0.2730     1.2600 h1         1 3E0       0.056700
     25 H5           3.9170    -3.0410     1.0500 h1         1 3E0       0.056700
     26 H6           4.0030    -1.5930     2.0660 h1         1 3E0       0.056700
     27 H7           2.4130    -1.9630    -0.5230 h1         1 3E0       0.061450
     28 H8           1.7960    -1.7110     1.1080 h1         1 3E0       0.061450
     29 H9          -0.9020     3.0330    -0.7800 h4         1 3E0       0.162000
     30 H10         -2.6060     2.4930     1.1030 ha         1 3E0       0.121000
     31 H11         -4.9750     1.9210     1.4620 ha         1 3E0       0.120000
     32 H12         -5.8220    -0.3250     0.8040 ha         1 3E0       0.133000
     33 H13         -0.8070    -2.1990    -2.3880 h1         1 3E0       0.036367
     34 H14         -2.3340    -1.3590    -2.7210 h1         1 3E0       0.036367
     35 H15         -0.8970    -0.4400    -2.2200 h1         1 3E0       0.036367
@<TRIPOS>BOND
     1     1     2 1   
     2     1     6 1   
     3     1    21 1   
     4     1    22 1   
     5     2     3 1   
     6     2    23 1   
     7     2    24 1   
     8     3     4 1   
     9     4     5 1   
    10     4    25 1   
    11     4    26 1   
    12     5     6 1   
    13     5    27 1   
    14     5    28 1   
    15     6     7 1   
    16     7     8 2   
    17     7     9 1   
    18     8    11 1   
    19     9    10 1   
    20    10    11 2   
    21    10    29 1   
    22    11    12 1   
    23    12    13 ar  
    24    12    18 ar  
    25    13    14 ar  
    26    13    30 1   
    27    14    15 ar  
    28    14    31 1   
    29    15    16 ar  
    30    15    32 1   
    31    16    17 1   
    32    16    18 ar  
    33    18    19 1   
    34    19    20 1   
    35    20    33 1   
    36    20    34 1   
    37    20    35 1   
@<TRIPOS>SUBSTRUCTURE
     1 3E0         1 TEMP              0 ****  ****    0 ROOT
