@<TRIPOS>MOLECULE
3E1
   38    39     1     0     0
SMALL
bcc


@<TRIPOS>ATOM
      1 C1          -3.0830    -0.2100    -0.5530 ca         1 3E1       0.026600
      2 C2          -1.7780    -0.2700    -0.0720 ca         1 3E1      -0.106500
      3 C3          -0.8970     0.7920    -0.2620 cp         1 3E1      -0.082000
      4 C4          -1.3120     1.9270    -0.9590 ca         1 3E1       0.137600
      5 C5          -2.6140     1.9860    -1.4460 ca         1 3E1      -0.175500
      6 C6          -3.4860     0.9360    -1.2400 ca         1 3E1      -0.113000
      7 N           -4.0330    -1.2320    -0.4080 ns         1 3E1      -0.473600
      8 C           -3.9950    -2.3280     0.3870 c          1 3E1       0.673100
      9 CM          -5.2340    -3.1860     0.3280 c3         1 3E1      -0.181100
     10 O4          -0.5040     2.9800    -1.2000 oh         1 3E1      -0.488600
     11 O11         -3.0480    -2.6180     1.1010 o          1 3E1      -0.588600
     12 C11          2.6930    -0.3170     0.1930 ca         1 3E1       0.026600
     13 C21          1.3990    -0.1820    -0.3010 ca         1 3E1      -0.106500
     14 C31          0.4850     0.6980     0.2660 cp         1 3E1      -0.082000
     15 C41          0.8830     1.4740     1.3600 ca         1 3E1       0.137600
     16 C51          2.1770     1.3480     1.8530 ca         1 3E1      -0.175500
     17 C61          3.0750     0.4600     1.2840 ca         1 3E1      -0.113000
     18 C91          4.8790    -1.1730    -0.5810 c          1 3E1       0.673100
     19 CM1          5.4860    -2.3030    -1.3730 c3         1 3E1      -0.181100
     20 O41         -0.0260     2.3070     1.9020 oh         1 3E1      -0.488600
     21 O12          5.5500    -0.2510    -0.1480 o          1 3E1      -0.588600
     22 H1          -1.4270    -1.1380     0.4630 ha         1 3E1       0.152500
     23 H2          -2.9430     2.8610    -1.9920 ha         1 3E1       0.141500
     24 H3          -4.4970     1.0070    -1.6250 ha         1 3E1       0.143500
     25 H4          -4.8820    -1.0920    -0.9320 hn         1 3E1       0.316000
     26 H5          -4.9570    -4.1980     0.0340 hc         1 3E1       0.062700
     27 H6          -5.6740    -3.2470     1.3240 hc         1 3E1       0.062700
     28 H7          -5.9950    -2.8230    -0.3600 hc         1 3E1       0.062700
     29 H8           0.4020     2.7810    -0.9340 ho         1 3E1       0.429500
     30 H9           1.0880    -0.7720    -1.1550 ha         1 3E1       0.152500
     31 H10          2.4900     1.9360     2.7080 ha         1 3E1       0.141500
     32 H11          4.0630     0.3740     1.7090 ha         1 3E1       0.143500
     33 H12          3.0710    -2.0270    -0.8770 hn         1 3E1       0.316000
     34 H13          5.7470    -1.9400    -2.3690 hc         1 3E1       0.062700
     35 H14          6.4060    -2.6300    -0.8930 hc         1 3E1       0.062700
     36 H15          4.8250    -3.1600    -1.4870 hc         1 3E1       0.062700
     37 H16          0.3620     2.7920     2.6390 ho         1 3E1       0.429500
     38 N1           3.5360    -1.2630    -0.4130 ns         1 3E1      -0.473600
@<TRIPOS>BOND
     1     1     2 ar  
     2     1     6 ar  
     3     1     7 1   
     4     2     3 ar  
     5     2    22 1   
     6     3     4 ar  
     7     3    14 1   
     8     4     5 ar  
     9     4    10 1   
    10     5     6 ar  
    11     5    23 1   
    12     6    24 1   
    13     7     8 1   
    14     7    25 1   
    15     8     9 1   
    16     8    11 2   
    17     9    26 1   
    18     9    27 1   
    19     9    28 1   
    20    10    29 1   
    21    12    13 ar  
    22    12    17 ar  
    23    12    38 1   
    24    13    14 ar  
    25    13    30 1   
    26    14    15 ar  
    27    15    16 ar  
    28    15    20 1   
    29    16    17 ar  
    30    16    31 1   
    31    17    32 1   
    32    18    19 1   
    33    18    21 2   
    34    18    38 1   
    35    19    34 1   
    36    19    35 1   
    37    19    36 1   
    38    20    37 1   
    39    33    38 1   
@<TRIPOS>SUBSTRUCTURE
     1 3E1         1 TEMP              0 ****  ****    0 ROOT
