@<TRIPOS>MOLECULE
3E1
   38    39     1     0     0
SMALL
No Charge or Current Charge


@<TRIPOS>ATOM
      1 C1          -3.0690    -0.1970    -0.4580 ca         1 3E1      -0.066000
      2 C2          -1.7180    -0.1580    -0.0460 ca         1 3E1      -0.088500
      3 C3          -0.9540     1.0380    -0.1060 cp         1 3E1      -0.082000
      4 C4          -1.5940     2.2080    -0.5990 ca         1 3E1       0.137600
      5 C5          -2.9320     2.1720    -1.0140 ca         1 3E1      -0.157500
      6 C6          -3.6660     0.9790    -0.9420 ca         1 3E1      -0.095000
      7 N           -3.8730    -1.3720    -0.4110 ns         1 3E1      -0.147500
      8 C           -3.5960    -2.6880    -0.0590 c          1 3E1       0.606100
      9 CM          -4.8010    -3.6210    -0.1510 c3         1 3E1      -0.181100
     10 O4          -0.9250     3.3900    -0.6760 oh         1 3E1      -0.527600
     11 O11         -2.4970    -3.1000     0.2930 o          1 3E1      -0.588600
     12 C11          2.6780    -0.1590     0.1130 ca         1 3E1      -0.066000
     13 C21          1.3160    -0.0430    -0.2190 ca         1 3E1      -0.088500
     14 C31          0.4990     1.0000     0.2880 cp         1 3E1      -0.082000
     15 C41          1.1050     1.9450     1.1640 ca         1 3E1       0.137600
     16 C51          2.4630     1.8350     1.5010 ca         1 3E1      -0.157500
     17 C61          3.2490     0.7930     0.9820 ca         1 3E1      -0.095000
     18 C91          4.7330    -1.6450    -0.3450 c          1 3E1       0.606100
     19 CM1          5.0710    -2.8950    -1.1530 c3         1 3E1      -0.181100
     20 O41          0.3870     2.9730     1.7040 oh         1 3E1      -0.527600
     21 O12          5.5820    -1.0740     0.3290 o          1 3E1      -0.588600
     22 H1          -1.2330    -1.0490     0.3360 ha         1 3E1       0.134500
     23 H2          -3.4060     3.0760    -1.3900 ha         1 3E1       0.123500
     24 H3          -4.7060     0.9710    -1.2660 ha         1 3E1       0.125500
     25 H4          -4.8350    -1.2170    -0.6860 hn         1 3E1       0.149500
     26 H5          -4.5590    -4.6530     0.1280 hc         1 3E1       0.062700
     27 H6          -5.6140    -3.2160     0.4620 hc         1 3E1       0.062700
     28 H7          -5.2210    -3.5630    -1.1620 hc         1 3E1       0.062700
     29 H8          -0.2330     3.3500     0.0270 ho         1 3E1       0.468500
     30 H9           0.8760    -0.7740    -0.8960 ha         1 3E1       0.134500
     31 H10          2.9230     2.5590     2.1700 ha         1 3E1       0.123500
     32 H11          4.2950     0.7470     1.2690 ha         1 3E1       0.125500
     33 H12          2.8500    -1.8360    -1.0580 hn         1 3E1       0.149500
     34 H13          4.7970    -2.7270    -2.2010 hc         1 3E1       0.062700
     35 H14          6.1200    -3.1940    -1.0510 hc         1 3E1       0.062700
     36 H15          4.3900    -3.7030    -0.8620 hc         1 3E1       0.062700
     37 H16          0.9240     3.3910     2.4120 ho         1 3E1       0.468500
     38 N1           3.4060    -1.2430    -0.4560 ns         1 3E1      -0.147500
@<TRIPOS>BOND
     1     1     2 ar  
     2     1     6 ar  
     3     1     7 1   
     4     2     3 ar  
     5     2    22 1   
     6     3     4 ar  
     7     3    14 1   
     8     4     5 ar  
     9     4    10 1   
    10     5     6 ar  
    11     5    23 1   
    12     6    24 1   
    13     7     8 1   
    14     7    25 1   
    15     8     9 1   
    16     8    11 2   
    17     9    26 1   
    18     9    27 1   
    19     9    28 1   
    20    10    29 1   
    21    12    13 ar  
    22    12    17 ar  
    23    12    38 1   
    24    13    14 ar  
    25    13    30 1   
    26    14    15 ar  
    27    15    16 ar  
    28    15    20 1   
    29    16    17 ar  
    30    16    31 1   
    31    17    32 1   
    32    18    19 1   
    33    18    21 2   
    34    18    38 1   
    35    19    34 1   
    36    19    35 1   
    37    19    36 1   
    38    20    37 1   
    39    33    38 1   
@<TRIPOS>SUBSTRUCTURE
     1 3E1         1 TEMP              0 ****  ****    0 ROOT
