@<TRIPOS>MOLECULE
3E3
   43    43     1     0     0
SMALL
No Charge or Current Charge


@<TRIPOS>ATOM
      1 N1           3.9180    -0.5420     1.3820 n8         1 3E3      -0.992200
      2 C7           2.6090    -0.3740     0.7150 c3         1 3E3       0.151500
      3 C8           2.7830     0.3860    -0.6350 c3         1 3E3      -0.071400
      4 C9           3.3360     1.8390    -0.5340 c3         1 3E3      -0.053700
      5 C11          3.6310     2.4150    -1.9380 c3         1 3E3      -0.087600
      6 C10          2.3960     2.7840     0.2540 c3         1 3E3      -0.087600
      7 C12          1.9210    -1.7720     0.5610 c3         1 3E3       0.047300
      8 O2           2.8140    -2.7060    -0.1150 oh         1 3E3      -0.652000
      9 C13          0.5290    -1.6880    -0.1380 c          1 3E3       0.575100
     10 O1           0.2820    -2.3580    -1.1370 o          1 3E3      -0.590100
     11 N2          -0.3630    -0.7990     0.4520 ns         1 3E3      -0.149000
     12 C14         -1.7030    -0.4310     0.1350 ca         1 3E3      -0.047000
     13 C21         -2.4980    -1.1660    -0.7720 ca         1 3E3      -0.097000
     14 C20         -3.8160    -0.7690    -1.0510 ca         1 3E3      -0.100000
     15 C18         -4.3630     0.3640    -0.4290 ca         1 3E3      -0.079300
     16 C19         -5.7930     0.7910    -0.7280 c3         1 3E3      -0.045800
     17 C17         -3.5810     1.0940     0.4830 ca         1 3E3      -0.096000
     18 C15         -2.2570     0.7060     0.7710 ca         1 3E3      -0.097300
     19 C16         -1.4400     1.5300     1.7640 c3         1 3E3      -0.048800
     20 H30          3.7670    -0.8910     2.3350 hn         1 3E3       0.403500
     21 H31          1.9800     0.2410     1.3740 h1         1 3E3       0.052700
     22 H32          3.4480    -0.2000    -1.2820 hc         1 3E3       0.047200
     23 H33          1.8190     0.4320    -1.1550 hc         1 3E3       0.047200
     24 H34          4.2930     1.8040     0.0020 hc         1 3E3       0.063700
     25 H35          2.7130     2.4840    -2.5340 hc         1 3E3       0.031033
     26 H36          4.0680     3.4180    -1.8630 hc         1 3E3       0.031033
     27 H37          4.3430     1.7780    -2.4780 hc         1 3E3       0.031033
     28 H38          1.4020     2.8200    -0.2080 hc         1 3E3       0.031033
     29 H39          2.2840     2.4590     1.2940 hc         1 3E3       0.031033
     30 H40          2.8000     3.8040     0.2700 hc         1 3E3       0.031033
     31 H41          1.7130    -2.1440     1.5730 h1         1 3E3       0.068700
     32 H42          2.2930    -3.1000    -0.8560 ho         1 3E3       0.476000
     33 H43          0.0070    -0.3140     1.2580 hn         1 3E3       0.155000
     34 H44         -2.1180    -2.0560    -1.2640 ha         1 3E3       0.132000
     35 H45         -4.4140    -1.3490    -1.7510 ha         1 3E3       0.116000
     36 H46         -6.4920     0.3410    -0.0130 hc         1 3E3       0.042700
     37 H47         -5.9050     1.8810    -0.6660 hc         1 3E3       0.042700
     38 H48         -6.1000     0.4860    -1.7350 hc         1 3E3       0.042700
     39 H49         -4.0070     1.9690     0.9700 ha         1 3E3       0.112000
     40 H50         -0.5250     1.9160     1.2990 hc         1 3E3       0.042367
     41 H51         -2.0030     2.3930     2.1390 hc         1 3E3       0.042367
     42 H52         -1.1500     0.9270     2.6330 hc         1 3E3       0.042367
     43 H2           4.3740    -1.3400     0.9220 hn         1 3E3       0.403500
@<TRIPOS>BOND
     1     1     2 1   
     2     1    20 1   
     3     1    43 1   
     4     2     3 1   
     5     2     7 1   
     6     2    21 1   
     7     3     4 1   
     8     3    22 1   
     9     3    23 1   
    10     4     5 1   
    11     4     6 1   
    12     4    24 1   
    13     5    25 1   
    14     5    26 1   
    15     5    27 1   
    16     6    28 1   
    17     6    29 1   
    18     6    30 1   
    19     7     8 1   
    20     7     9 1   
    21     7    31 1   
    22     8    32 1   
    23     9    10 2   
    24     9    11 1   
    25    11    12 1   
    26    11    33 1   
    27    12    13 ar  
    28    12    18 ar  
    29    13    14 ar  
    30    13    34 1   
    31    14    15 ar  
    32    14    35 1   
    33    15    16 1   
    34    15    17 ar  
    35    16    36 1   
    36    16    37 1   
    37    16    38 1   
    38    17    18 ar  
    39    17    39 1   
    40    18    19 1   
    41    19    40 1   
    42    19    41 1   
    43    19    42 1   
@<TRIPOS>SUBSTRUCTURE
     1 3E3         1 TEMP              0 ****  ****    0 ROOT
