@<TRIPOS>MOLECULE
3E3
   43    43     1     0     0
SMALL
bcc


@<TRIPOS>ATOM
      1 N1           3.7970    -0.4720     1.3840 n8         1 3E3      -0.881800
      2 C7           2.5220    -0.3350     0.7090 c3         1 3E3       0.151500
      3 C8           2.6940     0.4270    -0.6040 c3         1 3E3      -0.071400
      4 C9           3.3990     1.7780    -0.4840 c3         1 3E3      -0.053700
      5 C11          3.5720     2.3960    -1.8680 c3         1 3E3      -0.087600
      6 C10          2.6520     2.7350     0.4380 c3         1 3E3      -0.087600
      7 C12          1.8240    -1.7050     0.4890 c3         1 3E3       0.024100
      8 O2           2.5990    -2.5670    -0.2920 oh         1 3E3      -0.589800
      9 C13          0.4490    -1.5220    -0.1420 c          1 3E3       0.642100
     10 O1           0.2490    -1.8290    -1.3060 o          1 3E3      -0.590100
     11 N2          -0.4750    -0.9650     0.6670 ns         1 3E3      -0.475100
     12 C14         -1.7700    -0.5580     0.2830 ca         1 3E3       0.045600
     13 C21         -2.5990    -1.3930    -0.4590 ca         1 3E3      -0.115000
     14 C20         -3.8690    -0.9720    -0.8190 ca         1 3E3      -0.118000
     15 C18         -4.3460     0.2780    -0.4320 ca         1 3E3      -0.079300
     16 C19         -5.7310     0.7220    -0.8050 c3         1 3E3      -0.045800
     17 C17         -3.5060     1.0920     0.3210 ca         1 3E3      -0.114000
     18 C15         -2.2190     0.7040     0.6820 ca         1 3E3      -0.097300
     19 C16         -1.3360     1.6250     1.4710 c3         1 3E3      -0.048800
     20 H30          3.6780    -0.9610     2.2630 hn         1 3E3       0.348300
     21 H31          1.8700     0.2470     1.3690 h1         1 3E3       0.052700
     22 H32          3.2530    -0.2000    -1.3080 hc         1 3E3       0.047200
     23 H33          1.7110     0.5940    -1.0580 hc         1 3E3       0.047200
     24 H34          4.3930     1.6070    -0.0610 hc         1 3E3       0.063700
     25 H35          2.6040     2.5970    -2.3340 hc         1 3E3       0.031033
     26 H36          4.1130     3.3430    -1.8130 hc         1 3E3       0.031033
     27 H37          4.1290     1.7340    -2.5350 hc         1 3E3       0.031033
     28 H38          1.6330     2.9070     0.0800 hc         1 3E3       0.031033
     29 H39          2.5910     2.3570     1.4590 hc         1 3E3       0.031033
     30 H40          3.1500     3.7050     0.4810 hc         1 3E3       0.031033
     31 H41          1.6950    -2.1670     1.4770 h1         1 3E3       0.068700
     32 H42          2.2580    -2.5290    -1.1960 ho         1 3E3       0.437000
     33 H43         -0.1910    -0.7510     1.6110 hn         1 3E3       0.321500
     34 H44         -2.2620    -2.3770    -0.7510 ha         1 3E3       0.150000
     35 H45         -4.4970    -1.6310    -1.4050 ha         1 3E3       0.134000
     36 H46         -6.4860     0.1860    -0.2270 hc         1 3E3       0.042700
     37 H47         -5.8730     1.7860    -0.6220 hc         1 3E3       0.042700
     38 H48         -5.9390     0.5310    -1.8580 hc         1 3E3       0.042700
     39 H49         -3.8570     2.0700     0.6300 ha         1 3E3       0.130000
     40 H50         -0.4020     1.8350     0.9460 hc         1 3E3       0.042367
     41 H51         -1.8320     2.5760     1.6550 hc         1 3E3       0.042367
     42 H52         -1.0690     1.2080     2.4450 hc         1 3E3       0.042367
     43 H2           4.4200    -1.0410     0.8240 hn         1 3E3       0.348300
@<TRIPOS>BOND
     1     1     2 1   
     2     1    20 1   
     3     1    43 1   
     4     2     3 1   
     5     2     7 1   
     6     2    21 1   
     7     3     4 1   
     8     3    22 1   
     9     3    23 1   
    10     4     5 1   
    11     4     6 1   
    12     4    24 1   
    13     5    25 1   
    14     5    26 1   
    15     5    27 1   
    16     6    28 1   
    17     6    29 1   
    18     6    30 1   
    19     7     8 1   
    20     7     9 1   
    21     7    31 1   
    22     8    32 1   
    23     9    10 2   
    24     9    11 1   
    25    11    12 1   
    26    11    33 1   
    27    12    13 ar  
    28    12    18 ar  
    29    13    14 ar  
    30    13    34 1   
    31    14    15 ar  
    32    14    35 1   
    33    15    16 1   
    34    15    17 ar  
    35    16    36 1   
    36    16    37 1   
    37    16    38 1   
    38    17    18 ar  
    39    17    39 1   
    40    18    19 1   
    41    19    40 1   
    42    19    41 1   
    43    19    42 1   
@<TRIPOS>SUBSTRUCTURE
     1 3E3         1 TEMP              0 ****  ****    0 ROOT
