@<TRIPOS>MOLECULE
3E4
   74    79     1     0     0
SMALL
bcc


@<TRIPOS>ATOM
      1 C21          5.7610    -2.0710    -0.2220 c6         1 3E4      -0.089400
      2 C22          6.8780    -3.0950    -0.3790 c6         1 3E4      -0.087900
      3 C23          7.0980    -3.4720    -1.8390 c6         1 3E4       0.152500
      4 N6           8.1510    -4.4720    -1.9380 n8         1 3E4      -0.877800
      5 C24          7.3470    -2.2120    -2.6710 c6         1 3E4      -0.087900
      6 C25          6.2300    -1.1830    -2.5220 c6         1 3E4      -0.089400
      7 C20          6.0200    -0.8170    -1.0580 c6         1 3E4       0.236500
      8 N4           4.9360     0.1400    -0.9420 nu         1 3E4      -0.852900
      9 C12          4.7230     0.9010     0.1520 ca         1 3E4       0.908900
     10 N2           3.5300     1.5020     0.2340 nb         1 3E4      -0.767000
     11 N3           5.7100     1.0170     1.0480 nb         1 3E4      -0.765000
     12 C15          5.4660     1.7950     2.0890 ca         1 3E4       0.478200
     13 C13          4.2640     2.4540     2.2810 ca         1 3E4      -0.426600
     14 C11          3.3030     2.2600     1.2940 cp         1 3E4       0.563800
     15 C14          1.9840     2.9180     1.3820 cp         1 3E4      -0.287800
     16 C16          1.8770     4.2790     1.6190 ca         1 3E4      -0.047000
     17 C17          0.6270     4.8880     1.6390 ca         1 3E4      -0.286300
     18 C18         -0.4800     4.0930     1.4170 ca         1 3E4       0.453200
     19 N5          -0.4030     2.7790     1.2180 nb         1 3E4      -0.738000
     20 C19          0.7810     2.2170     1.2140 ca         1 3E4       0.679600
     21 O1           0.8640     0.8780     1.0810 os         1 3E4      -0.358400
     22 C4          -0.2360     0.1780     0.6520 ca         1 3E4       0.133100
     23 C5          -1.0910    -0.3660     1.5730 ca         1 3E4      -0.062300
     24 C26         -0.9080    -0.1520     3.0440 c3         1 3E4      -0.043800
     25 C6          -2.1750    -1.1230     1.0850 ca         1 3E4      -0.135000
     26 C3          -0.3870    -0.0110    -0.7430 ca         1 3E4      -0.033000
     27 C10          0.5430     0.5090    -1.6770 ca         1 3E4      -0.115000
     28 C9           0.3630     0.3010    -3.0160 ca         1 3E4      -0.124000
     29 C8          -0.7420    -0.4390    -3.4840 ca         1 3E4      -0.122000
     30 C7          -1.6490    -0.9590    -2.6040 ca         1 3E4      -0.090000
     31 C2          -1.4950    -0.7630    -1.2120 ca         1 3E4      -0.006000
     32 C1          -2.3910    -1.3040    -0.2550 ca         1 3E4       0.112600
     33 N1          -3.5030    -2.0680    -0.7080 nu         1 3E4      -0.700500
     34 S1          -4.9510    -1.2960    -0.9090 sy         1 3E4       1.299200
     35 O2          -4.6920    -0.1180    -1.7130 o          1 3E4      -0.593800
     36 O3          -5.8970    -2.2950    -1.3630 o          1 3E4      -0.593800
     37 C27         -5.4480    -0.7110     0.7000 ca         1 3E4      -0.289500
     38 C32         -5.5320     0.6600     0.9030 ca         1 3E4      -0.015000
     39 C31         -5.9170     1.1590     2.1370 ca         1 3E4      -0.145000
     40 C30         -6.2180     0.2870     3.1710 ca         1 3E4      -0.070000
     41 C29         -6.1290    -1.0840     2.9810 ca         1 3E4      -0.143000
     42 C28         -5.7470    -1.5810     1.7470 ca         1 3E4       0.100400
     43 CL1         -5.6020    -3.2930     1.5690 cl         1 3E4      -0.093400
     44 H1           4.8090    -2.5110    -0.5400 hc         1 3E4       0.048700
     45 H2           5.6450    -1.7960     0.8290 hc         1 3E4       0.048700
     46 H3           7.8110    -2.6840     0.0270 hc         1 3E4       0.045700
     47 H4           6.6510    -3.9910     0.2040 hc         1 3E4       0.045700
     48 H5           6.1750    -3.9400    -2.2060 h1         1 3E4       0.059700
     49 H6           8.2880    -4.7260    -2.9100 hn         1 3E4       0.335800
     50 H7           9.0300    -4.0620    -1.6400 hn         1 3E4       0.335800
     51 H9           8.2990    -1.7680    -2.3560 hc         1 3E4       0.045700
     52 H10          7.4640    -2.4810    -3.7240 hc         1 3E4       0.045700
     53 H11          6.4600    -0.2860    -3.1020 hc         1 3E4       0.048700
     54 H12          5.2990    -1.5950    -2.9290 hc         1 3E4       0.048700
     55 H13          6.9280    -0.3320    -0.6910 h1         1 3E4       0.081700
     56 H14          4.1180    -0.0270    -1.5070 hn         1 3E4       0.438800
     57 H15          6.2660     1.8920     2.8150 h4         1 3E4       0.020100
     58 H16          4.0810     3.0630     3.1540 ha         1 3E4       0.153000
     59 H17          2.7730     4.8700     1.7620 ha         1 3E4       0.144000
     60 H18          0.5210     5.9490     1.8060 ha         1 3E4       0.149000
     61 H19         -1.4750     4.5210     1.4030 h4         1 3E4       0.023100
     62 H20          0.1080    -0.3830     3.3660 hc         1 3E4       0.049033
     63 H21         -1.1090     0.8860     3.3140 hc         1 3E4       0.049033
     64 H22         -1.5900    -0.7790     3.6150 hc         1 3E4       0.049033
     65 H23         -2.8560    -1.5710     1.7990 ha         1 3E4       0.135000
     66 H24          1.4130     1.0510    -1.3290 ha         1 3E4       0.160000
     67 H25          1.0800     0.6970    -3.7230 ha         1 3E4       0.131000
     68 H26         -0.8670    -0.6000    -4.5470 ha         1 3E4       0.134000
     69 H27         -2.4880    -1.5360    -2.9680 ha         1 3E4       0.146000
     70 H28         -3.5920    -3.0040    -0.3270 hn         1 3E4       0.445800
     71 H29         -5.2940     1.3410     0.0990 ha         1 3E4       0.170000
     72 H30         -5.9800     2.2280     2.2860 ha         1 3E4       0.143000
     73 H31         -6.5190     0.6690     4.1370 ha         1 3E4       0.139000
     74 H32         -6.3540    -1.7650     3.7900 ha         1 3E4       0.150000
@<TRIPOS>BOND
     1     1     2 1   
     2     1     7 1   
     3     1    44 1   
     4     1    45 1   
     5     2     3 1   
     6     2    46 1   
     7     2    47 1   
     8     3     4 1   
     9     3     5 1   
    10     3    48 1   
    11     4    49 1   
    12     4    50 1   
    13     5     6 1   
    14     5    51 1   
    15     5    52 1   
    16     6     7 1   
    17     6    53 1   
    18     6    54 1   
    19     7     8 1   
    20     7    55 1   
    21     8     9 1   
    22     8    56 1   
    23     9    10 ar  
    24     9    11 ar  
    25    10    14 ar  
    26    11    12 ar  
    27    12    13 ar  
    28    12    57 1   
    29    13    14 ar  
    30    13    58 1   
    31    14    15 1   
    32    15    16 ar  
    33    15    20 ar  
    34    16    17 ar  
    35    16    59 1   
    36    17    18 ar  
    37    17    60 1   
    38    18    19 ar  
    39    18    61 1   
    40    19    20 ar  
    41    20    21 1   
    42    21    22 1   
    43    22    23 ar  
    44    22    26 ar  
    45    23    24 1   
    46    23    25 ar  
    47    24    62 1   
    48    24    63 1   
    49    24    64 1   
    50    25    32 ar  
    51    25    65 1   
    52    26    27 ar  
    53    26    31 ar  
    54    27    28 ar  
    55    27    66 1   
    56    28    29 ar  
    57    28    67 1   
    58    29    30 ar  
    59    29    68 1   
    60    30    31 ar  
    61    30    69 1   
    62    31    32 ar  
    63    32    33 1   
    64    33    34 1   
    65    33    70 1   
    66    34    35 2   
    67    34    36 2   
    68    34    37 1   
    69    37    38 ar  
    70    37    42 ar  
    71    38    39 ar  
    72    38    71 1   
    73    39    40 ar  
    74    39    72 1   
    75    40    41 ar  
    76    40    73 1   
    77    41    42 ar  
    78    41    74 1   
    79    42    43 1   
@<TRIPOS>SUBSTRUCTURE
     1 3E4         1 TEMP              0 ****  ****    0 ROOT
