@<TRIPOS>MOLECULE
3E4
   74    79     1     0     0
SMALL
No Charge or Current Charge


@<TRIPOS>ATOM
      1 C21          6.0430    -2.1310    -0.0370 c6         1 3E4      -0.089400
      2 C22          7.2270    -3.0980    -0.2970 c6         1 3E4      -0.087900
      3 C23          7.2910    -3.5160    -1.7880 c6         1 3E4       0.152500
      4 N6           8.4460    -4.4010    -2.0240 n8         1 3E4      -0.988200
      5 C24          7.3690    -2.2710    -2.7090 c6         1 3E4      -0.087900
      6 C25          6.1830    -1.3070    -2.4450 c6         1 3E4      -0.089400
      7 C20          6.1230    -0.8820    -0.9550 c6         1 3E4       0.236500
      8 N4           4.9450    -0.0240    -0.7460 nu         1 3E4      -0.908100
      9 C12          4.7370     0.8380     0.3240 ca         1 3E4       0.382900
     10 N2           3.5150     1.3900     0.3800 nb         1 3E4      -0.241000
     11 N3           5.7510     1.0450     1.1880 nb         1 3E4      -0.239000
     12 C15          5.5070     1.8900     2.2060 ca         1 3E4       0.149900
     13 C13          4.2580     2.5150     2.3510 ca         1 3E4      -0.278000
     14 C11          3.2510     2.2280     1.4020 cp         1 3E4       0.235500
     15 C14          1.9070     2.8760     1.4620 cp         1 3E4      -0.222500
     16 C16          1.8000     4.2490     1.7890 ca         1 3E4      -0.029000
     17 C17          0.5330     4.8440     1.8260 ca         1 3E4      -0.203000
     18 C18         -0.5970     4.0650     1.5450 ca         1 3E4       0.387900
     19 N5          -0.5250     2.7540     1.2440 nb         1 3E4      -0.738000
     20 C19          0.6970     2.1740     1.2050 ca         1 3E4       0.614300
     21 O1           0.7880     0.8230     0.9530 os         1 3E4      -0.358400
     22 C4          -0.2840     0.0800     0.5110 ca         1 3E4       0.133100
     23 C5          -1.0720    -0.6150     1.4500 ca         1 3E4      -0.062300
     24 C26         -0.7550    -0.5460     2.9410 c3         1 3E4      -0.043800
     25 C6          -2.1710    -1.3690     1.0030 ca         1 3E4      -0.117000
     26 C3          -0.5690    -0.0080    -0.8720 ca         1 3E4      -0.033000
     27 C10          0.2480     0.6520    -1.8190 ca         1 3E4      -0.097000
     28 C9          -0.0290     0.5520    -3.1910 ca         1 3E4      -0.106000
     29 C8          -1.1180    -0.2120    -3.6320 ca         1 3E4      -0.104000
     30 C7          -1.9360    -0.8720    -2.7010 ca         1 3E4      -0.072000
     31 C2          -1.6790    -0.7720    -1.3130 ca         1 3E4      -0.006000
     32 C1          -2.4980    -1.4360    -0.3610 ca         1 3E4       0.251000
     33 N1          -3.6310    -2.1650    -0.7250 nu         1 3E4      -0.894100
     34 S1          -5.1620    -1.4990    -0.9160 sy         1 3E4       1.157600
     35 O2          -5.0130    -0.5250    -1.9990 o          1 3E4      -0.523000
     36 O3          -6.0140    -2.6820    -1.0500 o          1 3E4      -0.523000
     37 C27         -5.5000    -0.6580     0.6360 ca         1 3E4      -0.289500
     38 C32         -5.5670     0.7540     0.6430 ca         1 3E4       0.003000
     39 C31         -5.8130     1.4460     1.8410 ca         1 3E4      -0.127000
     40 C30         -5.9880     0.7400     3.0410 ca         1 3E4      -0.052000
     41 C29         -5.9120    -0.6620     3.0410 ca         1 3E4      -0.125000
     42 C28         -5.6690    -1.3650     1.8480 ca         1 3E4       0.192000
     43 Cl1         -5.5420    -3.1220     1.9550 cl         1 3E4      -0.185000
     44 H1           5.0940    -2.6600    -0.2060 hc         1 3E4       0.048700
     45 H2           6.0450    -1.8260     1.0180 hc         1 3E4       0.048700
     46 H3           8.1670    -2.6120     0.0010 hc         1 3E4       0.045700
     47 H4           7.1200    -3.9880     0.3380 hc         1 3E4       0.045700
     48 H5           6.3800    -4.0830    -2.0360 h1         1 3E4       0.059700
     49 H6           8.4960    -4.6190    -3.0260 hn         1 3E4       0.391000
     50 H7           9.3070    -3.8710    -1.8510 hn         1 3E4       0.391000
     51 H9           8.3160    -1.7370    -2.5450 hc         1 3E4       0.045700
     52 H10          7.3610    -2.5800    -3.7640 hc         1 3E4       0.045700
     53 H11          6.2830    -0.4180    -3.0830 hc         1 3E4       0.048700
     54 H12          5.2430    -1.7990    -2.7360 hc         1 3E4       0.048700
     55 H13          7.0480    -0.3280    -0.7270 h1         1 3E4       0.081700
     56 H14          4.1390    -0.1510    -1.3570 hn         1 3E4       0.494000
     57 H15          6.3190     2.0670     2.9090 h4         1 3E4       0.020100
     58 H16          4.0740     3.1920     3.1800 ha         1 3E4       0.135000
     59 H17          2.6880     4.8450     1.9940 ha         1 3E4       0.126000
     60 H18          0.4200     5.8970     2.0670 ha         1 3E4       0.131000
     61 H19         -1.5930     4.5050     1.5670 h4         1 3E4       0.023100
     62 H20          0.2930    -0.8030     3.1340 hc         1 3E4       0.049033
     63 H21         -0.9310     0.4630     3.3320 hc         1 3E4       0.049033
     64 H22         -1.3750    -1.2390     3.5230 hc         1 3E4       0.049033
     65 H23         -2.7860    -1.8920     1.7290 ha         1 3E4       0.117000
     66 H24          1.1040     1.2410    -1.5010 ha         1 3E4       0.142000
     67 H25          0.6060     1.0620    -3.9130 ha         1 3E4       0.113000
     68 H26         -1.3280    -0.2960    -4.6960 ha         1 3E4       0.116000
     69 H27         -2.7650    -1.4690    -3.0700 ha         1 3E4       0.128000
     70 H28         -3.8370    -2.9410    -0.1090 hn         1 3E4       0.501000
     71 H29         -5.4290     1.3250    -0.2740 ha         1 3E4       0.152000
     72 H30         -5.8650     2.5320     1.8380 ha         1 3E4       0.125000
     73 H31         -6.1760     1.2770     3.9680 ha         1 3E4       0.121000
     74 H32         -6.0370    -1.2080     3.9720 ha         1 3E4       0.132000
@<TRIPOS>BOND
     1     1     2 1   
     2     1     7 1   
     3     1    44 1   
     4     1    45 1   
     5     2     3 1   
     6     2    46 1   
     7     2    47 1   
     8     3     4 1   
     9     3     5 1   
    10     3    48 1   
    11     4    49 1   
    12     4    50 1   
    13     5     6 1   
    14     5    51 1   
    15     5    52 1   
    16     6     7 1   
    17     6    53 1   
    18     6    54 1   
    19     7     8 1   
    20     7    55 1   
    21     8     9 1   
    22     8    56 1   
    23     9    10 ar  
    24     9    11 ar  
    25    10    14 ar  
    26    11    12 ar  
    27    12    13 ar  
    28    12    57 1   
    29    13    14 ar  
    30    13    58 1   
    31    14    15 1   
    32    15    16 ar  
    33    15    20 ar  
    34    16    17 ar  
    35    16    59 1   
    36    17    18 ar  
    37    17    60 1   
    38    18    19 ar  
    39    18    61 1   
    40    19    20 ar  
    41    20    21 1   
    42    21    22 1   
    43    22    23 ar  
    44    22    26 ar  
    45    23    24 1   
    46    23    25 ar  
    47    24    62 1   
    48    24    63 1   
    49    24    64 1   
    50    25    32 ar  
    51    25    65 1   
    52    26    27 ar  
    53    26    31 ar  
    54    27    28 ar  
    55    27    66 1   
    56    28    29 ar  
    57    28    67 1   
    58    29    30 ar  
    59    29    68 1   
    60    30    31 ar  
    61    30    69 1   
    62    31    32 ar  
    63    32    33 1   
    64    33    34 1   
    65    33    70 1   
    66    34    35 2   
    67    34    36 2   
    68    34    37 1   
    69    37    38 ar  
    70    37    42 ar  
    71    38    39 ar  
    72    38    71 1   
    73    39    40 ar  
    74    39    72 1   
    75    40    41 ar  
    76    40    73 1   
    77    41    42 ar  
    78    41    74 1   
    79    42    43 1   
@<TRIPOS>SUBSTRUCTURE
     1 3E4         1 TEMP              0 ****  ****    0 ROOT
