@<TRIPOS>MOLECULE
3E5
   97    98     1     0     0
SMALL
abcg2


@<TRIPOS>ATOM
      1 O5           5.6810     1.6540     1.7630 o          1 3E5      -0.549000
      2 C27          5.8200     1.0430     0.7230 c          1 3E5       0.639100
      3 O4           7.0060     0.7320     0.1890 os         1 3E5      -0.455100
      4 C28          8.1740     1.1580     0.9030 c3         1 3E5       0.231900
      5 C29          9.3530     0.5550     0.2030 ca         1 3E5      -0.102300
      6 C34         10.0590     1.2800    -0.7510 ca         1 3E5      -0.083500
      7 C33         11.1360     0.7100    -1.4180 ca         1 3E5      -0.115500
      8 C32         11.5130    -0.5970    -1.1370 ca         1 3E5      -0.097000
      9 C31         10.8120    -1.3280    -0.1860 ca         1 3E5      -0.115500
     10 C30          9.7390    -0.7550     0.4790 ca         1 3E5      -0.083500
     11 N3           4.8170     0.5700    -0.0400 ns         1 3E5      -0.494900
     12 C22          3.4300     0.8410     0.2590 c3         1 3E5       0.054700
     13 C            2.6010    -0.3190    -0.2770 c          1 3E5       0.596100
     14 O            2.7510    -0.7170    -1.4230 o          1 3E5      -0.607100
     15 C23          2.9570     2.1470    -0.3960 c3         1 3E5      -0.096400
     16 C24          1.4790     2.5010    -0.2170 c3         1 3E5      -0.058700
     17 C25          1.1000     2.7230     1.2430 c3         1 3E5      -0.090100
     18 C26          1.1550     3.7450    -1.0390 c3         1 3E5      -0.090100
     19 N            1.6920    -0.8090     0.5780 ns         1 3E5      -0.496900
     20 C1           0.6640    -1.7630     0.2170 c3         1 3E5       0.034700
     21 C6          -0.6760    -1.0840     0.4900 c          1 3E5       0.583100
     22 O3          -0.9780    -0.7430     1.6240 o          1 3E5      -0.613100
     23 C2           0.8010    -3.0580     1.0140 c3         1 3E5      -0.081400
     24 C3          -0.2650    -4.1130     0.7150 c3         1 3E5      -0.059700
     25 C4          -0.2650    -4.5380    -0.7500 c3         1 3E5      -0.090100
     26 C5          -0.0520    -5.3230     1.6190 c3         1 3E5      -0.090100
     27 N1          -1.4520    -0.8910    -0.5850 ns         1 3E5      -0.496900
     28 C7          -2.7070    -0.1620    -0.5540 c3         1 3E5       0.093700
     29 C8          -2.4580     1.2790    -1.0150 c3         1 3E5      -0.096400
     30 C9          -3.5450     2.3240    -0.7490 c3         1 3E5      -0.060700
     31 C11         -3.8750     2.4530     0.7350 c3         1 3E5      -0.089600
     32 C10         -3.0820     3.6700    -1.3000 c3         1 3E5      -0.089600
     33 C12         -3.7090    -0.9750    -1.4000 c3         1 3E5       0.079300
     34 O2          -3.2850    -1.0800    -2.7260 oh         1 3E5      -0.653000
     35 C13         -5.1340    -0.4270    -1.3490 c          1 3E5       0.576100
     36 O1          -5.6620     0.0210    -2.3520 o          1 3E5      -0.586100
     37 N2          -5.7220    -0.4950    -0.1380 ns         1 3E5      -0.146000
     38 C14         -7.0160    -0.0360     0.1840 ca         1 3E5      -0.045000
     39 C21         -7.4720     1.1980    -0.2600 ca         1 3E5      -0.102000
     40 C20         -8.7390     1.6400     0.0890 ca         1 3E5      -0.097000
     41 C18         -9.5690     0.8700     0.8960 ca         1 3E5      -0.079300
     42 C19        -10.9470     1.3320     1.2700 c3         1 3E5      -0.045800
     43 C17         -9.0860    -0.3580     1.3420 ca         1 3E5      -0.095000
     44 C15         -7.8280    -0.8360     0.9970 ca         1 3E5      -0.098300
     45 C16         -7.3510    -2.1700     1.4910 c3         1 3E5      -0.048800
     46 H1           8.2360     2.2490     0.9000 h1         1 3E5       0.056700
     47 H2           8.1240     0.8240     1.9400 h1         1 3E5       0.056700
     48 H3           9.7700     2.3010    -0.9720 ha         1 3E5       0.114500
     49 H4          11.6790     1.2860    -2.1550 ha         1 3E5       0.114500
     50 H5          12.3530    -1.0430    -1.6540 ha         1 3E5       0.113000
     51 H6          11.1040    -2.3460     0.0390 ha         1 3E5       0.114500
     52 H7           9.1990    -1.3290     1.2230 ha         1 3E5       0.114500
     53 H8           5.0340     0.1740    -0.9430 hn         1 3E5       0.346500
     54 H9           3.3300     0.9100     1.3430 h1         1 3E5       0.086700
     55 H10          3.5690     2.9600     0.0080 hc         1 3E5       0.059700
     56 H11          3.1830     2.0840    -1.4650 hc         1 3E5       0.059700
     57 H12          0.8660     1.6810    -0.6120 hc         1 3E5       0.044700
     58 H16          1.6980     3.5250     1.6800 hc         1 3E5       0.035867
     59 H17          0.0490     3.0080     1.3300 hc         1 3E5       0.035867
     60 H18          1.2370     1.8350     1.8610 hc         1 3E5       0.035867
     61 H13          1.3910     3.6020    -2.0950 hc         1 3E5       0.035867
     62 H14          0.0950     3.9970    -0.9670 hc         1 3E5       0.035867
     63 H15          1.7220     4.6070    -0.6820 hc         1 3E5       0.035867
     64 H19          1.6700    -0.4520     1.5210 hn         1 3E5       0.332500
     65 H20          0.7840    -1.9700    -0.8460 h1         1 3E5       0.090700
     66 H21          1.7910    -3.4730     0.8010 hc         1 3E5       0.057700
     67 H22          0.7840    -2.8180     2.0820 hc         1 3E5       0.057700
     68 H23         -1.2510    -3.6960     0.9520 hc         1 3E5       0.048700
     69 H27         -0.9860    -5.3390    -0.9210 hc         1 3E5       0.035200
     70 H28         -0.5310    -3.7240    -1.4250 hc         1 3E5       0.035200
     71 H29          0.7190    -4.9070    -1.0480 hc         1 3E5       0.035200
     72 H24         -0.0710    -5.0430     2.6740 hc         1 3E5       0.035200
     73 H25         -0.8290    -6.0720     1.4600 hc         1 3E5       0.035200
     74 H26          0.9120    -5.7960     1.4170 hc         1 3E5       0.035200
     75 H30         -1.0850    -1.1270    -1.4950 hn         1 3E5       0.332500
     76 H31         -3.0390    -0.1670     0.4850 h1         1 3E5       0.082700
     77 H32         -1.5490     1.6170    -0.5040 hc         1 3E5       0.051700
     78 H33         -2.2100     1.2720    -2.0810 hc         1 3E5       0.051700
     79 H34         -4.4550     2.0540    -1.2890 hc         1 3E5       0.052700
     80 H35         -2.9840     2.7270     1.3060 hc         1 3E5       0.035033
     81 H36         -4.6250     3.2280     0.8990 hc         1 3E5       0.035033
     82 H37         -4.2720     1.5310     1.1590 hc         1 3E5       0.035033
     83 H38         -2.8410     3.6070    -2.3620 hc         1 3E5       0.035033
     84 H39         -3.8520     4.4330    -1.1750 hc         1 3E5       0.035033
     85 H40         -2.1870     4.0150    -0.7760 hc         1 3E5       0.035033
     86 H41         -3.7320    -1.9850    -0.9700 h1         1 3E5       0.078700
     87 H42         -3.7940    -0.4500    -3.2540 ho         1 3E5       0.476000
     88 H43         -5.2230    -0.9880     0.5880 hn         1 3E5       0.159000
     89 H44         -6.8390     1.8300    -0.8660 ha         1 3E5       0.130000
     90 H45         -9.0760     2.6050    -0.2680 ha         1 3E5       0.116000
     91 H46        -11.7100     0.7970     0.7010 hc         1 3E5       0.043367
     92 H47        -11.1530     1.1570     2.3260 hc         1 3E5       0.043367
     93 H48        -11.0790     2.3950     1.0730 hc         1 3E5       0.043367
     94 H49         -9.7130    -0.9720     1.9800 ha         1 3E5       0.112000
     95 H50         -6.5120    -2.0740     2.1850 hc         1 3E5       0.043033
     96 H51         -8.1460    -2.6930     2.0210 hc         1 3E5       0.043033
     97 H52         -7.0200    -2.8090     0.6710 hc         1 3E5       0.043033
@<TRIPOS>BOND
     1     1     2 2   
     2     2     3 1   
     3     2    11 1   
     4     3     4 1   
     5     4     5 1   
     6     4    46 1   
     7     4    47 1   
     8     5     6 ar  
     9     5    10 ar  
    10     6     7 ar  
    11     6    48 1   
    12     7     8 ar  
    13     7    49 1   
    14     8     9 ar  
    15     8    50 1   
    16     9    10 ar  
    17     9    51 1   
    18    10    52 1   
    19    11    12 1   
    20    11    53 1   
    21    12    13 1   
    22    12    15 1   
    23    12    54 1   
    24    13    14 2   
    25    13    19 1   
    26    15    16 1   
    27    15    55 1   
    28    15    56 1   
    29    16    17 1   
    30    16    18 1   
    31    16    57 1   
    32    17    58 1   
    33    17    59 1   
    34    17    60 1   
    35    18    61 1   
    36    18    62 1   
    37    18    63 1   
    38    19    20 1   
    39    19    64 1   
    40    20    21 1   
    41    20    23 1   
    42    20    65 1   
    43    21    22 2   
    44    21    27 1   
    45    23    24 1   
    46    23    66 1   
    47    23    67 1   
    48    24    25 1   
    49    24    26 1   
    50    24    68 1   
    51    25    69 1   
    52    25    70 1   
    53    25    71 1   
    54    26    72 1   
    55    26    73 1   
    56    26    74 1   
    57    27    28 1   
    58    27    75 1   
    59    28    29 1   
    60    28    33 1   
    61    28    76 1   
    62    29    30 1   
    63    29    77 1   
    64    29    78 1   
    65    30    31 1   
    66    30    32 1   
    67    30    79 1   
    68    31    80 1   
    69    31    81 1   
    70    31    82 1   
    71    32    83 1   
    72    32    84 1   
    73    32    85 1   
    74    33    34 1   
    75    33    35 1   
    76    33    86 1   
    77    34    87 1   
    78    35    36 2   
    79    35    37 1   
    80    37    38 1   
    81    37    88 1   
    82    38    39 ar  
    83    38    44 ar  
    84    39    40 ar  
    85    39    89 1   
    86    40    41 ar  
    87    40    90 1   
    88    41    42 1   
    89    41    43 ar  
    90    42    91 1   
    91    42    92 1   
    92    42    93 1   
    93    43    44 ar  
    94    43    94 1   
    95    44    45 1   
    96    45    95 1   
    97    45    96 1   
    98    45    97 1   
@<TRIPOS>SUBSTRUCTURE
     1 3E5         1 TEMP              0 ****  ****    0 ROOT
