@<TRIPOS>MOLECULE
3E5
   97    98     1     0     0
SMALL
No Charge or Current Charge


@<TRIPOS>ATOM
      1 O5           6.0590     1.6510     2.1780 o          1 3E5      -0.549000
      2 C27          6.2030     0.9400     1.1970 c          1 3E5       0.639100
      3 O4           7.3660     0.3650     0.7910 os         1 3E5      -0.455100
      4 C28          8.5410     0.6240     1.5740 c3         1 3E5       0.231900
      5 C29          9.7140    -0.1110     0.9380 ca         1 3E5      -0.102300
      6 C34         10.5000     0.5210    -0.0460 ca         1 3E5      -0.083500
      7 C33         11.5830    -0.1580    -0.6320 ca         1 3E5      -0.115500
      8 C32         11.8860    -1.4720    -0.2390 ca         1 3E5      -0.097000
      9 C31         11.1040    -2.1080     0.7400 ca         1 3E5      -0.115500
     10 C30         10.0210    -1.4310     1.3270 ca         1 3E5      -0.083500
     11 N3           5.2070     0.5720     0.3400 ns         1 3E5      -0.494900
     12 C22          3.7950     0.9950     0.4390 c3         1 3E5       0.054700
     13 C            2.8970    -0.0170    -0.3350 c          1 3E5       0.596100
     14 O            3.3150    -0.7100    -1.2550 o          1 3E5      -0.607100
     15 C23          3.6500     2.4540    -0.0880 c3         1 3E5      -0.096400
     16 C24          2.2450     3.1100     0.0450 c3         1 3E5      -0.058700
     17 C25          1.7660     3.2080     1.5130 c3         1 3E5      -0.090100
     18 C26          2.2270     4.5030    -0.6250 c3         1 3E5      -0.090100
     19 N            1.5910    -0.1030     0.0990 ns         1 3E5      -0.496900
     20 C1           0.5500    -0.9740    -0.4880 c3         1 3E5       0.034700
     21 C6          -0.8480    -0.3600    -0.1880 c          1 3E5       0.583100
     22 O3          -1.0590     0.3690     0.7740 o          1 3E5      -0.613100
     23 C2           0.7050    -2.4190     0.0680 c3         1 3E5      -0.081400
     24 C3          -0.2580    -3.4950    -0.5100 c3         1 3E5      -0.059700
     25 C4          -0.1030    -3.6790    -2.0390 c3         1 3E5      -0.090100
     26 C5          -0.0710    -4.8450     0.2200 c3         1 3E5      -0.090100
     27 N1          -1.8380    -0.6660    -1.0970 ns         1 3E5      -0.496900
     28 C7          -3.2230    -0.1920    -1.0350 c3         1 3E5       0.093700
     29 C8          -3.3220     1.1740    -1.7860 c3         1 3E5      -0.096400
     30 C9          -4.5840     2.0520    -1.5370 c3         1 3E5      -0.060700
     31 C11         -4.7500     2.4600    -0.0520 c3         1 3E5      -0.089600
     32 C10         -4.5570     3.3070    -2.4380 c3         1 3E5      -0.089600
     33 C12         -4.1530    -1.3390    -1.5500 c3         1 3E5       0.079300
     34 O2          -3.8230    -1.6750    -2.9270 oh         1 3E5      -0.653000
     35 C13         -5.6730    -1.0620    -1.3630 c          1 3E5       0.576100
     36 O1          -6.4350    -1.0420    -2.3260 o          1 3E5      -0.586100
     37 N2          -6.0660    -0.8680    -0.0440 ns         1 3E5      -0.146000
     38 C14         -7.3140    -0.5250     0.5520 ca         1 3E5      -0.045000
     39 C21         -8.4630    -0.2120    -0.2090 ca         1 3E5      -0.102000
     40 C20         -9.6680     0.1320     0.4240 ca         1 3E5      -0.097000
     41 C18         -9.7480     0.1750     1.8250 ca         1 3E5      -0.079300
     42 C19        -11.0550     0.5450     2.5110 c3         1 3E5      -0.045800
     43 C17         -8.6080    -0.1310     2.5890 ca         1 3E5      -0.095000
     44 C15         -7.3930    -0.4780     1.9650 ca         1 3E5      -0.098300
     45 C16         -6.1770    -0.7950     2.8330 c3         1 3E5      -0.048800
     46 H1           8.7580     1.7010     1.6080 h1         1 3E5       0.056700
     47 H2           8.4060     0.2760     2.6070 h1         1 3E5       0.056700
     48 H3          10.2710     1.5380    -0.3580 ha         1 3E5       0.114500
     49 H4          12.1860     0.3350    -1.3910 ha         1 3E5       0.114500
     50 H5          12.7230    -1.9970    -0.6930 ha         1 3E5       0.113000
     51 H6          11.3360    -3.1270     1.0440 ha         1 3E5       0.114500
     52 H7           9.4190    -1.9310     2.0820 ha         1 3E5       0.114500
     53 H8           5.4790    -0.0430    -0.4190 hn         1 3E5       0.346500
     54 H9           3.5030     0.9530     1.4960 h1         1 3E5       0.086700
     55 H10          4.3740     3.0900     0.4360 hc         1 3E5       0.059700
     56 H11          3.9450     2.4650    -1.1450 hc         1 3E5       0.059700
     57 H12          1.5210     2.4960    -0.5040 hc         1 3E5       0.044700
     58 H16          2.4700     3.7950     2.1150 hc         1 3E5       0.035867
     59 H17          0.7840     3.6960     1.5660 hc         1 3E5       0.035867
     60 H18          1.6650     2.2190     1.9720 hc         1 3E5       0.035867
     61 H13          2.5130     4.4300    -1.6810 hc         1 3E5       0.035867
     62 H14          1.2240     4.9440    -0.5770 hc         1 3E5       0.035867
     63 H15          2.9260     5.1860    -0.1270 hc         1 3E5       0.035867
     64 H19          1.3160     0.5090     0.8600 hn         1 3E5       0.332500
     65 H20          0.6820    -0.9790    -1.5780 h1         1 3E5       0.090700
     66 H21          1.7360    -2.7530    -0.1030 hc         1 3E5       0.057700
     67 H22          0.5760    -2.3800     1.1580 hc         1 3E5       0.057700
     68 H23         -1.2900    -3.1790    -0.3130 hc         1 3E5       0.048700
     69 H27         -0.7800    -4.4600    -2.4040 hc         1 3E5       0.035200
     70 H28         -0.3420    -2.7580    -2.5820 hc         1 3E5       0.035200
     71 H29          0.9230    -3.9710    -2.2940 hc         1 3E5       0.035200
     72 H24         -0.2360    -4.7300     1.2980 hc         1 3E5       0.035200
     73 H25         -0.7850    -5.5890    -0.1520 hc         1 3E5       0.035200
     74 H26          0.9420    -5.2350     0.0670 hc         1 3E5       0.035200
     75 H30         -1.5870    -1.2670    -1.8740 hn         1 3E5       0.332500
     76 H31         -3.4540    -0.0210     0.0250 h1         1 3E5       0.082700
     77 H32         -2.4480     1.7780    -1.5090 hc         1 3E5       0.051700
     78 H33         -3.2210     0.9890    -2.8620 hc         1 3E5       0.051700
     79 H34         -5.4750     1.4890    -1.8310 hc         1 3E5       0.052700
     80 H35         -3.8730     3.0150     0.3000 hc         1 3E5       0.035033
     81 H36         -5.6320     3.1000     0.0750 hc         1 3E5       0.035033
     82 H37         -4.8850     1.5870     0.5950 hc         1 3E5       0.035033
     83 H38         -4.4970     3.0250    -3.4960 hc         1 3E5       0.035033
     84 H39         -5.4680     3.9030    -2.3020 hc         1 3E5       0.035033
     85 H40         -3.6940     3.9410    -2.2020 hc         1 3E5       0.035033
     86 H41         -3.9510    -2.2130    -0.9150 h1         1 3E5       0.078700
     87 H42         -4.6590    -1.5800    -3.4430 ho         1 3E5       0.476000
     88 H43         -5.3150    -0.9640     0.6270 hn         1 3E5       0.159000
     89 H44         -8.4450    -0.2220    -1.2930 ha         1 3E5       0.130000
     90 H45        -10.5420     0.3670    -0.1790 ha         1 3E5       0.116000
     91 H46        -11.6470    -0.3510     2.7300 hc         1 3E5       0.043367
     92 H47        -10.8750     1.0690     3.4570 hc         1 3E5       0.043367
     93 H48        -11.6650     1.2050     1.8820 hc         1 3E5       0.043367
     94 H49         -8.6690    -0.0980     3.6740 ha         1 3E5       0.112000
     95 H50         -5.3580    -0.0930     2.6390 hc         1 3E5       0.043033
     96 H51         -6.4120    -0.7330     3.9030 hc         1 3E5       0.043033
     97 H52         -5.8070    -1.8100     2.6410 hc         1 3E5       0.043033
@<TRIPOS>BOND
     1     1     2 2   
     2     2     3 1   
     3     2    11 1   
     4     3     4 1   
     5     4     5 1   
     6     4    46 1   
     7     4    47 1   
     8     5     6 ar  
     9     5    10 ar  
    10     6     7 ar  
    11     6    48 1   
    12     7     8 ar  
    13     7    49 1   
    14     8     9 ar  
    15     8    50 1   
    16     9    10 ar  
    17     9    51 1   
    18    10    52 1   
    19    11    12 1   
    20    11    53 1   
    21    12    13 1   
    22    12    15 1   
    23    12    54 1   
    24    13    14 2   
    25    13    19 1   
    26    15    16 1   
    27    15    55 1   
    28    15    56 1   
    29    16    17 1   
    30    16    18 1   
    31    16    57 1   
    32    17    58 1   
    33    17    59 1   
    34    17    60 1   
    35    18    61 1   
    36    18    62 1   
    37    18    63 1   
    38    19    20 1   
    39    19    64 1   
    40    20    21 1   
    41    20    23 1   
    42    20    65 1   
    43    21    22 2   
    44    21    27 1   
    45    23    24 1   
    46    23    66 1   
    47    23    67 1   
    48    24    25 1   
    49    24    26 1   
    50    24    68 1   
    51    25    69 1   
    52    25    70 1   
    53    25    71 1   
    54    26    72 1   
    55    26    73 1   
    56    26    74 1   
    57    27    28 1   
    58    27    75 1   
    59    28    29 1   
    60    28    33 1   
    61    28    76 1   
    62    29    30 1   
    63    29    77 1   
    64    29    78 1   
    65    30    31 1   
    66    30    32 1   
    67    30    79 1   
    68    31    80 1   
    69    31    81 1   
    70    31    82 1   
    71    32    83 1   
    72    32    84 1   
    73    32    85 1   
    74    33    34 1   
    75    33    35 1   
    76    33    86 1   
    77    34    87 1   
    78    35    36 2   
    79    35    37 1   
    80    37    38 1   
    81    37    88 1   
    82    38    39 ar  
    83    38    44 ar  
    84    39    40 ar  
    85    39    89 1   
    86    40    41 ar  
    87    40    90 1   
    88    41    42 1   
    89    41    43 ar  
    90    42    91 1   
    91    42    92 1   
    92    42    93 1   
    93    43    44 ar  
    94    43    94 1   
    95    44    45 1   
    96    45    95 1   
    97    45    96 1   
    98    45    97 1   
@<TRIPOS>SUBSTRUCTURE
     1 3E5         1 TEMP              0 ****  ****    0 ROOT
