@<TRIPOS>MOLECULE
3E7
   58    62     1     0     0
SMALL
abcg2


@<TRIPOS>ATOM
      1 C01          5.3010     2.6620     1.7590 ca         1 3E7      -0.111500
      2 C02          6.3640     2.3510     2.5980 ca         1 3E7      -0.106000
      3 C03          6.9800     1.1120     2.4930 ca         1 3E7      -0.111500
      4 C04          6.5340     0.1910     1.5530 ca         1 3E7      -0.094000
      5 C05          5.4740     0.4940     0.7070 ca         1 3E7      -0.101300
      6 C06          4.8610     1.7400     0.8200 ca         1 3E7      -0.094000
      7 C07          5.0320    -0.4980    -0.3470 c3         1 3E7       0.160000
      8 C08          5.4930    -0.0660    -1.7410 c3         1 3E7      -0.086400
      9 C09          5.2200    -1.1080    -2.8160 c3         1 3E7      -0.088100
     10 N10          3.5960    -0.6930    -0.3470 ns         1 3E7      -0.499900
     11 C11          2.9740    -1.4510     0.5740 c          1 3E7       0.615700
     12 C12          1.4870    -1.5440     0.4650 ca         1 3E7      -0.173600
     13 O13          3.5830    -2.0380     1.4580 o          1 3E7      -0.599100
     14 C14          0.8070    -1.3410    -0.7480 ca         1 3E7      -0.069000
     15 C15         -0.5680    -1.4450    -0.8410 ca         1 3E7      -0.128000
     16 C16         -1.2650    -1.7480     0.3220 ca         1 3E7      -0.001200
     17 C17         -0.6080    -1.9690     1.5460 ca         1 3E7      -0.098800
     18 C18          0.7780    -1.8760     1.6090 ca         1 3E7      -0.004000
     19 N19         -2.6220    -1.9060     0.5620 na         1 3E7      -0.210900
     20 C20         -2.8110    -2.2250     1.9060 cc         1 3E7      -0.140100
     21 C21         -1.6120    -2.2720     2.5250 cd         1 3E7      -0.200200
     22 S22         -3.8580    -1.6710    -0.5600 sy         1 3E7       1.179700
     23 O23         -3.5350    -2.4730    -1.7200 o          1 3E7      -0.522000
     24 O24         -5.0870    -1.9150     0.1660 o          1 3E7      -0.522000
     25 C25         -3.6960     0.0370    -0.9890 ca         1 3E7      -0.283500
     26 C26         -3.3690     0.3030    -2.2940 ca         1 3E7       0.008000
     27 C27         -3.1970     1.6290    -2.7260 ca         1 3E7      -0.143000
     28 C28         -3.3480     2.6540    -1.8380 ca         1 3E7      -0.028000
     29 C29         -3.6940     2.4100    -0.4890 ca         1 3E7      -0.061000
     30 C30         -3.8940     1.0770    -0.0320 ca         1 3E7       0.055000
     31 C31         -3.8500     3.4910     0.4080 ca         1 3E7      -0.086000
     32 C32         -4.1950     3.2740     1.7120 ca         1 3E7      -0.109000
     33 C33         -4.4050     1.9590     2.1640 ca         1 3E7      -0.074000
     34 C34         -4.2640     0.8890     1.3200 ca         1 3E7      -0.121000
     35 H1           4.8150     3.6270     1.8330 ha         1 3E7       0.111500
     36 H2           6.7080     3.0710     3.3300 ha         1 3E7       0.111000
     37 H3           7.8050     0.8590     3.1460 ha         1 3E7       0.111500
     38 H4           7.0150    -0.7780     1.4800 ha         1 3E7       0.110000
     39 H5           4.0290     1.9980     0.1740 ha         1 3E7       0.110000
     40 H6           5.4940    -1.4620    -0.1210 h1         1 3E7       0.079700
     41 H7           5.0200     0.8850    -2.0030 hc         1 3E7       0.047700
     42 H8           6.5650     0.1340    -1.6860 hc         1 3E7       0.047700
     43 H9           4.1530    -1.2740    -2.9650 hc         1 3E7       0.036033
     44 H10          5.6370    -0.7920    -3.7720 hc         1 3E7       0.036033
     45 H11          5.6720    -2.0670    -2.5560 hc         1 3E7       0.036033
     46 H12          3.0430    -0.1060    -0.9530 hn         1 3E7       0.311500
     47 H13          1.3560    -1.1310    -1.6570 ha         1 3E7       0.112000
     48 H14         -1.0510    -1.3060    -1.7970 ha         1 3E7       0.127000
     49 H15          1.2950    -2.0540     2.5420 ha         1 3E7       0.142000
     50 H16         -3.7980    -2.4030     2.2980 h4         1 3E7       0.240000
     51 H17         -1.4510    -2.5000     3.5670 ha         1 3E7       0.212000
     52 H18         -3.2320    -0.4980    -3.0070 ha         1 3E7       0.143000
     53 H19         -2.9400     1.8210    -3.7580 ha         1 3E7       0.125000
     54 H20         -3.2030     3.6780    -2.1590 ha         1 3E7       0.118000
     55 H21         -3.6920     4.4970     0.0400 ha         1 3E7       0.116000
     56 H22         -4.3120     4.1050     2.3940 ha         1 3E7       0.121000
     57 H23         -4.6890     1.7850     3.1930 ha         1 3E7       0.120000
     58 H24         -4.4660    -0.0930     1.7150 ha         1 3E7       0.127000
@<TRIPOS>BOND
     1     1     2 ar  
     2     1     6 ar  
     3     1    35 1   
     4     2     3 ar  
     5     2    36 1   
     6     3     4 ar  
     7     3    37 1   
     8     4     5 ar  
     9     4    38 1   
    10     5     6 ar  
    11     5     7 1   
    12     6    39 1   
    13     7     8 1   
    14     7    10 1   
    15     7    40 1   
    16     8     9 1   
    17     8    41 1   
    18     8    42 1   
    19     9    43 1   
    20     9    44 1   
    21     9    45 1   
    22    10    11 1   
    23    10    46 1   
    24    11    12 1   
    25    11    13 2   
    26    12    14 ar  
    27    12    18 ar  
    28    14    15 ar  
    29    14    47 1   
    30    15    16 ar  
    31    15    48 1   
    32    16    17 ar  
    33    16    19 1   
    34    17    18 ar  
    35    17    21 1   
    36    18    49 1   
    37    19    20 1   
    38    19    22 1   
    39    20    21 2   
    40    20    50 1   
    41    21    51 1   
    42    22    23 2   
    43    22    24 2   
    44    22    25 1   
    45    25    26 ar  
    46    25    30 ar  
    47    26    27 ar  
    48    26    52 1   
    49    27    28 ar  
    50    27    53 1   
    51    28    29 ar  
    52    28    54 1   
    53    29    30 ar  
    54    29    31 ar  
    55    30    34 ar  
    56    31    32 ar  
    57    31    55 1   
    58    32    33 ar  
    59    32    56 1   
    60    33    34 ar  
    61    33    57 1   
    62    34    58 1   
@<TRIPOS>SUBSTRUCTURE
     1 3E7         1 TEMP              0 ****  ****    0 ROOT
