@<TRIPOS>MOLECULE
3E7
   58    62     1     0     0
SMALL
No Charge or Current Charge


@<TRIPOS>ATOM
      1 C01          5.6760     3.0840    -0.8530 ca         1 3E7      -0.111500
      2 C02          6.1750     3.6540     0.3300 ca         1 3E7      -0.106000
      3 C03          6.3400     2.8570     1.4740 ca         1 3E7      -0.111500
      4 C04          6.0090     1.4920     1.4370 ca         1 3E7      -0.094000
      5 C05          5.5110     0.9090     0.2530 ca         1 3E7      -0.101300
      6 C06          5.3440     1.7190    -0.8920 ca         1 3E7      -0.094000
      7 C07          5.1490    -0.5750     0.2270 c3         1 3E7       0.160000
      8 C08          5.9400    -1.3500    -0.8570 c3         1 3E7      -0.086400
      9 C09          5.7480    -2.8810    -0.8170 c3         1 3E7      -0.088100
     10 N10          3.7030    -0.7250     0.0550 ns         1 3E7      -0.499900
     11 C11          2.9090    -1.6230     0.7340 c          1 3E7       0.615700
     12 C12          1.4380    -1.6190     0.3840 ca         1 3E7      -0.173600
     13 O13          3.3730    -2.3790     1.5770 o          1 3E7      -0.599100
     14 C14          0.8910    -0.7430    -0.6000 ca         1 3E7      -0.069000
     15 C15         -0.4880    -0.7610    -0.9060 ca         1 3E7      -0.128000
     16 C16         -1.3120    -1.6640    -0.2180 ca         1 3E7      -0.001200
     17 C17         -0.7880    -2.5020     0.7240 ca         1 3E7      -0.098800
     18 C18          0.5710    -2.5170     1.0570 ca         1 3E7      -0.004000
     19 N19         -2.6880    -1.8740    -0.3200 na         1 3E7      -0.210900
     20 C20         -3.0690    -2.9020     0.5840 cc         1 3E7      -0.140100
     21 C21         -1.8940    -3.2730     1.2200 cd         1 3E7      -0.200200
     22 S22         -3.8180    -1.0440    -1.3850 sy         1 3E7       1.179700
     23 O23         -3.2660    -1.1980    -2.7400 o          1 3E7      -0.522000
     24 O24         -5.1570    -1.5440    -1.0350 o          1 3E7      -0.522000
     25 C25         -3.6680     0.7160    -0.9420 ca         1 3E7      -0.283500
     26 C26         -3.2350     1.6130    -1.9470 ca         1 3E7       0.008000
     27 C27         -3.0770     2.9770    -1.6700 ca         1 3E7      -0.143000
     28 C28         -3.3480     3.4720    -0.3900 ca         1 3E7      -0.028000
     29 C29         -3.7840     2.6020     0.6240 ca         1 3E7      -0.061000
     30 C30         -3.9540     1.2160     0.3640 ca         1 3E7       0.055000
     31 C31         -4.0500     3.1310     1.9030 ca         1 3E7      -0.086000
     32 C32         -4.4870     2.2940     2.9380 ca         1 3E7      -0.109000
     33 C33         -4.6630     0.9250     2.6980 ca         1 3E7      -0.074000
     34 C34         -4.4010     0.3900     1.4250 ca         1 3E7      -0.121000
     35 H1           5.5440     3.7000    -1.7400 ha         1 3E7       0.111500
     36 H2           6.4310     4.7110     0.3590 ha         1 3E7       0.111000
     37 H3           6.7250     3.2970     2.3920 ha         1 3E7       0.111500
     38 H4           6.1400     0.8870     2.3310 ha         1 3E7       0.110000
     39 H5           4.9540     1.2940    -1.8140 ha         1 3E7       0.110000
     40 H6           5.4270    -1.0010     1.2000 h1         1 3E7       0.079700
     41 H7           5.6620    -0.9860    -1.8530 hc         1 3E7       0.047700
     42 H8           7.0080    -1.1330    -0.7310 hc         1 3E7       0.047700
     43 H9           4.7090    -3.1540    -1.0380 hc         1 3E7       0.036033
     44 H10          6.3900    -3.3650    -1.5630 hc         1 3E7       0.036033
     45 H11          6.0110    -3.2800     0.1700 hc         1 3E7       0.036033
     46 H12          3.2420    -0.1230    -0.6100 hn         1 3E7       0.311500
     47 H13          1.5200    -0.0390    -1.1400 ha         1 3E7       0.112000
     48 H14         -0.8890    -0.0880    -1.6580 ha         1 3E7       0.127000
     49 H15          0.9410    -3.2040     1.8150 ha         1 3E7       0.142000
     50 H16         -4.0890    -3.2640     0.6930 h4         1 3E7       0.240000
     51 H17         -1.8250    -4.0450     1.9840 ha         1 3E7       0.212000
     52 H18         -3.0140     1.2650    -2.9550 ha         1 3E7       0.143000
     53 H19         -2.7420     3.6540    -2.4530 ha         1 3E7       0.125000
     54 H20         -3.2200     4.5330    -0.1870 ha         1 3E7       0.118000
     55 H21         -3.9170     4.1930     2.0960 ha         1 3E7       0.116000
     56 H22         -4.6910     2.7060     3.9240 ha         1 3E7       0.121000
     57 H23         -5.0050     0.2740     3.5000 ha         1 3E7       0.120000
     58 H24         -4.5610    -0.6740     1.2970 ha         1 3E7       0.127000
@<TRIPOS>BOND
     1     1     2 ar  
     2     1     6 ar  
     3     1    35 1   
     4     2     3 ar  
     5     2    36 1   
     6     3     4 ar  
     7     3    37 1   
     8     4     5 ar  
     9     4    38 1   
    10     5     6 ar  
    11     5     7 1   
    12     6    39 1   
    13     7     8 1   
    14     7    10 1   
    15     7    40 1   
    16     8     9 1   
    17     8    41 1   
    18     8    42 1   
    19     9    43 1   
    20     9    44 1   
    21     9    45 1   
    22    10    11 1   
    23    10    46 1   
    24    11    12 1   
    25    11    13 2   
    26    12    14 ar  
    27    12    18 ar  
    28    14    15 ar  
    29    14    47 1   
    30    15    16 ar  
    31    15    48 1   
    32    16    17 ar  
    33    16    19 1   
    34    17    18 ar  
    35    17    21 1   
    36    18    49 1   
    37    19    20 1   
    38    19    22 1   
    39    20    21 2   
    40    20    50 1   
    41    21    51 1   
    42    22    23 2   
    43    22    24 2   
    44    22    25 1   
    45    25    26 ar  
    46    25    30 ar  
    47    26    27 ar  
    48    26    52 1   
    49    27    28 ar  
    50    27    53 1   
    51    28    29 ar  
    52    28    54 1   
    53    29    30 ar  
    54    29    31 ar  
    55    30    34 ar  
    56    31    32 ar  
    57    31    55 1   
    58    32    33 ar  
    59    32    56 1   
    60    33    34 ar  
    61    33    57 1   
    62    34    58 1   
@<TRIPOS>SUBSTRUCTURE
     1 3E7         1 TEMP              0 ****  ****    0 ROOT
