@<TRIPOS>MOLECULE
3E8
   65    69     1     0     0
SMALL
abcg2


@<TRIPOS>ATOM
      1 C1          -3.1550    -2.4670     0.2220 ca         1 3E8      -0.110900
      2 C2          -1.8810    -2.1570    -0.2440 ca         1 3E8      -0.037000
      3 C3          -3.4660    -3.7950     0.5100 ca         1 3E8      -0.076000
      4 C4          -0.9440    -3.1720    -0.4150 ca         1 3E8      -0.027000
      5 C5          -2.5270    -4.8020     0.3330 ca         1 3E8      -0.117000
      6 C6          -1.2600    -4.5010    -0.1300 ca         1 3E8      -0.064000
      7 C7          -4.1600    -1.4030     0.4030 cc         1 3E8       0.386200
      8 C8          -5.1550    -1.4670     1.4230 cc         1 3E8      -0.222600
      9 C12         -5.9190     0.7220     0.7010 c          1 3E8       0.533200
     10 C15         -3.9470     3.8590    -0.0740 ca         1 3E8      -0.068000
     11 C16         -2.3020     2.2450    -0.7390 ca         1 3E8      -0.053000
     12 C17         -2.9370     4.6680     0.4300 ca         1 3E8      -0.130000
     13 C18         -1.2830     3.0400    -0.2220 cp         1 3E8      -0.146500
     14 C19         -1.6130     4.2640     0.3610 ca         1 3E8      -0.059000
     15 N22          1.0730     3.4210     0.1110 nb         1 3E8      -0.154000
     16 C23          1.6020     0.9160    -0.7600 ca         1 3E8       0.053400
     17 C24          2.3210     3.0020     0.0770 ca         1 3E8       0.053400
     18 O26          3.9510     1.3750    -0.3440 os         1 3E8      -0.333100
     19 C30          6.2000    -1.5710    -0.7910 c6         1 3E8      -0.072400
     20 C31          6.1970     0.1400     1.0170 c6         1 3E8      -0.072400
     21 C32          7.6770    -1.8000    -0.5090 c6         1 3E8       0.167800
     22 C33          7.6740    -0.1530     1.2300 c6         1 3E8       0.167800
     23 C36          0.3670    -2.8460    -0.8790 cg         1 3E8       0.345000
     24 N37          1.4270    -2.5860    -1.2500 n1         1 3E8      -0.478000
     25 N9          -4.0880    -0.3880    -0.3970 nd         1 3E8      -0.415300
     26 N11         -4.9390     0.6150    -0.2700 n          1 3E8      -0.114800
     27 O27         -6.6200     1.7190     0.7940 o          1 3E8      -0.537000
     28 C10         -6.0110    -0.4360     1.5610 cd         1 3E8      -0.270200
     29 C13         -4.7040     1.7260    -1.1920 c3         1 3E8       0.158300
     30 C14         -3.6310     2.6410    -0.6660 ca         1 3E8      -0.136300
     31 C20          0.1200     2.5780    -0.2830 cp         1 3E8       0.151500
     32 C25          2.6620     1.7190    -0.3550 ca         1 3E8       0.044100
     33 N21          0.3500     1.3480    -0.7170 nb         1 3E8      -0.154000
     34 C28          4.3010     0.0310    -0.6580 c3         1 3E8       0.162600
     35 C29          5.7880    -0.1480    -0.4240 c6         1 3E8      -0.063700
     36 N34          7.9990    -1.5200     0.8760 n3         1 3E8      -0.718600
     37 H1          -1.6090    -1.1310    -0.4560 ha         1 3E8       0.151000
     38 H2          -4.4550    -4.0600     0.8590 ha         1 3E8       0.118000
     39 H3          -2.7910    -5.8270     0.5530 ha         1 3E8       0.123000
     40 H4          -0.5220    -5.2790    -0.2670 ha         1 3E8       0.127000
     41 H5          -5.2050    -2.3180     2.0890 ha         1 3E8       0.198000
     42 H6          -4.9810     4.1760    -0.0060 ha         1 3E8       0.125000
     43 H7          -2.0480     1.3030    -1.2050 ha         1 3E8       0.137000
     44 H8          -3.1860     5.6170     0.8850 ha         1 3E8       0.118000
     45 H9          -0.8330     4.8970     0.7610 ha         1 3E8       0.134000
     46 H10          1.7500    -0.0940    -1.1240 h4         1 3E8       0.038100
     47 H11          3.0940     3.6920     0.4000 h4         1 3E8       0.038100
     48 H13          5.6110    -2.2880    -0.2110 hc         1 3E8       0.052200
     49 H14          5.6060    -0.4840     1.6960 hc         1 3E8       0.052200
     50 H15          6.0000     1.1800     1.2820 hc         1 3E8       0.052200
     51 H16          7.9340    -2.8410    -0.7250 h1         1 3E8       0.030950
     52 H17          8.2770    -1.1780    -1.1990 h1         1 3E8       0.030950
     53 H18          8.2730     0.5700     0.6450 h1         1 3E8       0.030950
     54 H19          7.9320     0.0070     2.2800 h1         1 3E8       0.030950
     55 H20         10.0970    -1.2260     0.5970 h1         1 3E8       0.030033
     56 H21          9.5800    -1.6650     2.2320 h1         1 3E8       0.030033
     57 H22          9.5820    -2.8810     0.9560 h1         1 3E8       0.030033
     58 H23         -6.7710    -0.4270     2.3300 ha         1 3E8       0.215000
     59 H24         -4.4130     1.2890    -2.1460 h1         1 3E8       0.078700
     60 H25         -5.6410     2.2570    -1.3390 h1         1 3E8       0.078700
     61 H26          3.7330    -0.6610    -0.0250 h1         1 3E8       0.046200
     62 H27          4.0510    -0.1890    -1.7020 h1         1 3E8       0.046200
     63 H28          6.3250     0.5430    -1.0860 hc         1 3E8       0.058700
     64 H12          6.0010    -1.7700    -1.8470 hc         1 3E8       0.052200
     65 C35          9.3780    -1.8310     1.1730 c3         1 3E8       0.154100
@<TRIPOS>BOND
     1     1     2 ar  
     2     1     3 ar  
     3     1     7 1   
     4     2     4 ar  
     5     2    37 1   
     6     3     5 ar  
     7     3    38 1   
     8     4     6 ar  
     9     4    23 1   
    10     5     6 ar  
    11     5    39 1   
    12     6    40 1   
    13     7     8 1   
    14     7    25 2   
    15     8    28 2   
    16     8    41 1   
    17     9    26 1   
    18     9    27 2   
    19     9    28 1   
    20    10    12 ar  
    21    10    30 ar  
    22    10    42 1   
    23    11    13 ar  
    24    11    30 ar  
    25    11    43 1   
    26    12    14 ar  
    27    12    44 1   
    28    13    14 ar  
    29    13    31 1   
    30    14    45 1   
    31    15    17 ar  
    32    15    31 ar  
    33    16    32 ar  
    34    16    33 ar  
    35    16    46 1   
    36    17    32 ar  
    37    17    47 1   
    38    18    32 1   
    39    18    34 1   
    40    19    21 1   
    41    19    35 1   
    42    19    48 1   
    43    19    64 1   
    44    20    22 1   
    45    20    35 1   
    46    20    49 1   
    47    20    50 1   
    48    21    36 1   
    49    21    51 1   
    50    21    52 1   
    51    22    36 1   
    52    22    53 1   
    53    22    54 1   
    54    23    24 3   
    55    25    26 1   
    56    26    29 1   
    57    28    58 1   
    58    29    30 1   
    59    29    59 1   
    60    29    60 1   
    61    31    33 ar  
    62    34    35 1   
    63    34    61 1   
    64    34    62 1   
    65    35    63 1   
    66    36    65 1   
    67    55    65 1   
    68    56    65 1   
    69    57    65 1   
@<TRIPOS>SUBSTRUCTURE
     1 3E8         1 TEMP              0 ****  ****    0 ROOT
