@<TRIPOS>MOLECULE
3E8
   65    69     1     0     0
SMALL
No Charge or Current Charge


@<TRIPOS>ATOM
      1 C1          -3.4110    -2.4600     0.4330 ca         1 3E8      -0.110900
      2 C2          -2.1150    -2.2500    -0.1170 ca         1 3E8      -0.037000
      3 C3          -3.6550    -3.7080     1.0630 ca         1 3E8      -0.076000
      4 C4          -1.1080    -3.2300    -0.0220 ca         1 3E8      -0.027000
      5 C5          -2.6510    -4.6870     1.1530 ca         1 3E8      -0.117000
      6 C6          -1.3780    -4.4510     0.6160 ca         1 3E8      -0.064000
      7 C7          -4.4540    -1.4010     0.3200 cc         1 3E8       0.386200
      8 C8          -5.7270    -1.5180     1.0030 cc         1 3E8      -0.222600
      9 C12         -6.4050     0.6820     0.0810 c          1 3E8       0.533200
     10 C15         -4.0170     3.8610    -0.0580 ca         1 3E8      -0.068000
     11 C16         -2.3030     2.2830    -0.7530 ca         1 3E8      -0.053000
     12 C17         -3.0320     4.6430     0.5650 ca         1 3E8      -0.130000
     13 C18         -1.2840     3.0460    -0.1180 cp         1 3E8      -0.146500
     14 C19         -1.6850     4.2420     0.5390 ca         1 3E8      -0.059000
     15 N22          1.0720     3.3670     0.4910 nb         1 3E8      -0.154000
     16 C23          1.7180     0.9920    -0.7410 ca         1 3E8       0.053400
     17 C24          2.3540     2.9450     0.5030 ca         1 3E8       0.053400
     18 O26          4.0560     1.3350    -0.0670 os         1 3E8      -0.333100
     19 C30          6.5470    -1.3480    -1.1490 c6         1 3E8      -0.072400
     20 C31          6.3750    -0.1650     1.0840 c6         1 3E8      -0.072400
     21 C32          8.0600    -1.5440    -0.8890 c6         1 3E8       0.167800
     22 C33          7.8940    -0.3960     1.2810 c6         1 3E8       0.167800
     23 C36          0.1970    -2.9790    -0.5720 cg         1 3E8       0.345000
     24 N37          1.2610    -2.7820    -1.0120 n1         1 3E8      -0.478000
     25 N9          -4.1520    -0.3530    -0.4560 nd         1 3E8      -0.415300
     26 N11         -5.1310     0.6520    -0.5430 n          1 3E8      -0.114800
     27 O27         -7.2110     1.5980    -0.0300 o          1 3E8      -0.537000
     28 C10         -6.6670    -0.5140     0.8870 cd         1 3E8      -0.270200
     29 C13         -4.7160     1.8000    -1.3840 c3         1 3E8       0.158300
     30 C14         -3.6550     2.6760    -0.7210 ca         1 3E8      -0.136300
     31 C20          0.1540     2.5900    -0.1290 cp         1 3E8       0.151500
     32 C25          2.7360     1.7380    -0.1080 ca         1 3E8       0.044100
     33 N21          0.4400     1.4210    -0.7490 nb         1 3E8      -0.154000
     34 C28          4.4820     0.0930    -0.6560 c3         1 3E8       0.162600
     35 C29          6.0090    -0.0860    -0.4240 c6         1 3E8      -0.063700
     36 N34          8.3600    -1.6160     0.5670 n3         1 3E8      -0.718600
     37 H1          -1.8670    -1.3140    -0.6140 ha         1 3E8       0.151000
     38 H2          -4.6230    -3.9580     1.4840 ha         1 3E8       0.118000
     39 H3          -2.8630    -5.6360     1.6410 ha         1 3E8       0.123000
     40 H4          -0.6070    -5.2160     0.6950 ha         1 3E8       0.127000
     41 H5          -5.9440    -2.3750     1.6280 ha         1 3E8       0.198000
     42 H6          -5.0590     4.1740    -0.0210 ha         1 3E8       0.125000
     43 H7          -2.0500     1.3600    -1.2700 ha         1 3E8       0.137000
     44 H8          -3.3140     5.5600     1.0770 ha         1 3E8       0.118000
     45 H9          -0.9520     4.8700     1.0410 ha         1 3E8       0.134000
     46 H10          1.9110     0.0480    -1.2480 h4         1 3E8       0.038100
     47 H11          3.0790     3.5800     1.0110 h4         1 3E8       0.038100
     48 H13          6.0020    -2.2390    -0.8070 hc         1 3E8       0.052200
     49 H14          5.8180    -0.9810     1.5640 hc         1 3E8       0.052200
     50 H15          6.0810     0.7590     1.5980 hc         1 3E8       0.052200
     51 H16          8.3870    -2.4670    -1.3900 h1         1 3E8       0.030950
     52 H17          8.6140    -0.7120    -1.3500 h1         1 3E8       0.030950
     53 H18          8.4400     0.4880     0.9200 h1         1 3E8       0.030950
     54 H19          8.0990    -0.4840     2.3580 h1         1 3E8       0.030950
     55 H20         10.4290    -1.1060     0.4570 h1         1 3E8       0.030033
     56 H21          9.9630    -2.0200     1.9110 h1         1 3E8       0.030033
     57 H22         10.0830    -2.8490     0.3450 h1         1 3E8       0.030033
     58 H23         -7.6310    -0.5410     1.3850 ha         1 3E8       0.215000
     59 H24         -4.3160     1.4090    -2.3280 h1         1 3E8       0.078700
     60 H25         -5.5840     2.4150    -1.6500 h1         1 3E8       0.078700
     61 H26          3.9480    -0.7540    -0.2050 h1         1 3E8       0.046200
     62 H27          4.2840     0.0940    -1.7350 h1         1 3E8       0.046200
     63 H28          6.4950     0.7980    -0.8600 hc         1 3E8       0.058700
     64 H12          6.3690    -1.2680    -2.2300 hc         1 3E8       0.052200
     65 C35          9.7840    -1.9120     0.8330 c3         1 3E8       0.154100
@<TRIPOS>BOND
     1     1     2 ar  
     2     1     3 ar  
     3     1     7 1   
     4     2     4 ar  
     5     2    37 1   
     6     3     5 ar  
     7     3    38 1   
     8     4     6 ar  
     9     4    23 1   
    10     5     6 ar  
    11     5    39 1   
    12     6    40 1   
    13     7     8 1   
    14     7    25 2   
    15     8    28 2   
    16     8    41 1   
    17     9    26 1   
    18     9    27 2   
    19     9    28 1   
    20    10    12 ar  
    21    10    30 ar  
    22    10    42 1   
    23    11    13 ar  
    24    11    30 ar  
    25    11    43 1   
    26    12    14 ar  
    27    12    44 1   
    28    13    14 ar  
    29    13    31 1   
    30    14    45 1   
    31    15    17 ar  
    32    15    31 ar  
    33    16    32 ar  
    34    16    33 ar  
    35    16    46 1   
    36    17    32 ar  
    37    17    47 1   
    38    18    32 1   
    39    18    34 1   
    40    19    21 1   
    41    19    35 1   
    42    19    48 1   
    43    19    64 1   
    44    20    22 1   
    45    20    35 1   
    46    20    49 1   
    47    20    50 1   
    48    21    36 1   
    49    21    51 1   
    50    21    52 1   
    51    22    36 1   
    52    22    53 1   
    53    22    54 1   
    54    23    24 3   
    55    25    26 1   
    56    26    29 1   
    57    28    58 1   
    58    29    30 1   
    59    29    59 1   
    60    29    60 1   
    61    31    33 ar  
    62    34    35 1   
    63    34    61 1   
    64    34    62 1   
    65    35    63 1   
    66    36    65 1   
    67    55    65 1   
    68    56    65 1   
    69    57    65 1   
@<TRIPOS>SUBSTRUCTURE
     1 3E8         1 TEMP              0 ****  ****    0 ROOT
