@<TRIPOS>MOLECULE
3EA
   56    59     1     0     0
SMALL
No Charge or Current Charge


@<TRIPOS>ATOM
      1 C13         44.0030     9.2470     9.2540 c3         1 3EA      -0.091100
      2 C12         43.9030    10.2600     8.0970 c3         1 3EA      -0.072400
      3 C11         44.6000     9.7810     6.8040 c3         1 3EA      -0.016100
      4 C10         44.5860    10.8540     5.7150 ca         1 3EA      -0.116300
      5 C5          43.6270    10.8370     4.6900 ca         1 3EA       0.113100
      6 O4          42.6300     9.9150     4.5110 os         1 3EA      -0.113100
      7 N3          41.8860    10.3270     3.3130 nc         1 3EA      -0.238700
      8 C2          42.4790    11.4460     2.8720 cd         1 3EA       0.290900
      9 C1          41.9940    12.1880     1.6370 c3         1 3EA       0.294700
     10 F34         41.6180    13.4530     1.9340 f          1 3EA      -0.100667
     11 F33         42.9630    12.2770     0.6970 f          1 3EA      -0.100667
     12 F32         40.9300    11.5920     1.0460 f          1 3EA      -0.100667
     13 C6          43.5850    11.7930     3.7280 ca         1 3EA      -0.265900
     14 C7          44.4890    12.8610     3.6890 ca         1 3EA       0.004000
     15 C8          45.4670    12.9180     4.7020 ca         1 3EA      -0.215000
     16 C9          45.5190    11.9200     5.7130 ca         1 3EA       0.197100
     17 O14         46.4630    11.9550     6.7180 os         1 3EA      -0.344100
     18 C15         47.2710    13.1110     6.9870 c3         1 3EA       0.166600
     19 C16         48.0890    12.8190     8.2600 c3         1 3EA      -0.084400
     20 C17         47.2120    12.4220     9.4650 c3         1 3EA       0.163600
     21 O18         48.0730    12.2500    10.6040 os         1 3EA      -0.377100
     22 C19         47.5880    11.8410    11.8300 ca         1 3EA       0.046100
     23 C20         48.5070    11.7160    12.8930 ca         1 3EA      -0.084000
     24 C24         46.2130    11.5430    12.0450 ca         1 3EA      -0.153000
     25 C23         45.7630    11.1240    13.3170 ca         1 3EA      -0.076000
     26 C22         46.7030    11.0120    14.3540 ca         1 3EA      -0.040200
     27 C21         48.0240    11.2990    14.1400 ca         1 3EA      -0.088800
     28 C25         48.7160    11.0880    15.3760 cc         1 3EA      -0.287200
     29 C26         47.7700    10.6760    16.3090 cd         1 3EA      -0.130100
     30 N27         46.5080    10.6250    15.6750 na         1 3EA      -0.026700
     31 C28         45.2040    10.2770    16.2650 c3         1 3EA      -0.088400
     32 C29         44.8020     8.8160    16.0110 c          1 3EA       0.702000
     33 O31         45.2950     7.9490    16.7190 o          1 3EA      -0.710000
     34 O30         43.9840     8.5850    15.1320 o          1 3EA      -0.710000
     35 H131        43.4890     9.6300    10.1430 hc         1 3EA       0.038033
     36 H132        45.0520     9.0630     9.5190 hc         1 3EA       0.038033
     37 H133        43.5430     8.2910     8.9750 hc         1 3EA       0.038033
     38 H121        44.3450    11.2100     8.4210 hc         1 3EA       0.041200
     39 H122        42.8450    10.4590     7.8830 hc         1 3EA       0.041200
     40 H111        44.1110     8.8650     6.4500 hc         1 3EA       0.058700
     41 H112        45.6340     9.4960     7.0360 hc         1 3EA       0.058700
     42 H7          44.4400    13.6210     2.9110 ha         1 3EA       0.128000
     43 H8          46.1790    13.7380     4.6870 ha         1 3EA       0.125000
     44 H151        46.6380    13.9930     7.1550 h1         1 3EA       0.037700
     45 H152        47.9510    13.3190     6.1510 h1         1 3EA       0.037700
     46 H161        48.6740    13.7100     8.5150 hc         1 3EA       0.065700
     47 H162        48.8020    12.0130     8.0500 hc         1 3EA       0.065700
     48 H171        46.6840    11.4860     9.2400 h1         1 3EA       0.033700
     49 H172        46.4690    13.2080     9.6560 h1         1 3EA       0.033700
     50 H20         49.5610    11.9370    12.7480 ha         1 3EA       0.107000
     51 H24         45.4850    11.6290    11.2440 ha         1 3EA       0.102000
     52 H23         44.7130    10.8930    13.4820 ha         1 3EA       0.124000
     53 H25         49.7780    11.2220    15.5680 ha         1 3EA       0.186000
     54 H26         47.8930    10.4200    17.3570 h4         1 3EA       0.205000
     55 H281        44.4310    10.9380    15.8570 h1         1 3EA       0.042200
     56 H282        45.2500    10.4390    17.3490 h1         1 3EA       0.042200
@<TRIPOS>BOND
     1     1     2 1   
     2     1    35 1   
     3     1    36 1   
     4     1    37 1   
     5     2     3 1   
     6     2    38 1   
     7     2    39 1   
     8     3     4 1   
     9     3    40 1   
    10     3    41 1   
    11     4     5 ar  
    12     4    16 ar  
    13     5     6 1   
    14     5    13 ar  
    15     6     7 1   
    16     7     8 2   
    17     8     9 1   
    18     8    13 1   
    19     9    10 1   
    20     9    11 1   
    21     9    12 1   
    22    13    14 ar  
    23    14    15 ar  
    24    14    42 1   
    25    15    16 ar  
    26    15    43 1   
    27    16    17 1   
    28    17    18 1   
    29    18    19 1   
    30    18    44 1   
    31    18    45 1   
    32    19    20 1   
    33    19    46 1   
    34    19    47 1   
    35    20    21 1   
    36    20    48 1   
    37    20    49 1   
    38    21    22 1   
    39    22    23 ar  
    40    22    24 ar  
    41    23    27 ar  
    42    23    50 1   
    43    24    25 ar  
    44    24    51 1   
    45    25    26 ar  
    46    25    52 1   
    47    26    27 ar  
    48    26    30 1   
    49    27    28 1   
    50    28    29 2   
    51    28    53 1   
    52    29    30 1   
    53    29    54 1   
    54    30    31 1   
    55    31    32 1   
    56    31    55 1   
    57    31    56 1   
    58    32    33 1   
    59    32    34 1   
@<TRIPOS>SUBSTRUCTURE
     1 3EA         1 TEMP              0 ****  ****    0 ROOT
