@<TRIPOS>MOLECULE
3EA
   56    59     1     0     0
SMALL
abcg2


@<TRIPOS>ATOM
      1 C13         43.7860     9.3410     9.3300 c3         1 3EA      -0.091100
      2 C12         43.8540    10.4190     8.2530 c3         1 3EA      -0.072400
      3 C11         44.3980     9.8780     6.9210 c3         1 3EA      -0.016100
      4 C10         44.5040    10.9420     5.8670 ca         1 3EA      -0.116300
      5 C5          43.5480    11.1320     4.8830 ca         1 3EA       0.113100
      6 O4          42.4270    10.3770     4.7050 os         1 3EA      -0.113100
      7 N3          41.7260    10.8730     3.6020 nc         1 3EA      -0.238700
      8 C2          42.4060    11.8870     3.1520 cd         1 3EA       0.290900
      9 C1          41.8990    12.6590     1.9710 c3         1 3EA       0.294700
     10 F34         41.4570    13.8790     2.3460 f          1 3EA      -0.100667
     11 F33         42.8830    12.8570     1.0710 f          1 3EA      -0.100667
     12 F32         40.8900    12.0390     1.3440 f          1 3EA      -0.100667
     13 C6          43.5890    12.1340     3.9090 ca         1 3EA      -0.265900
     14 C7          44.6530    13.0390     3.8970 ca         1 3EA       0.004000
     15 C8          45.6330    12.8910     4.8580 ca         1 3EA      -0.215000
     16 C9          45.5640    11.8600     5.8230 ca         1 3EA       0.197100
     17 O14         46.5130    11.6760     6.7650 os         1 3EA      -0.344100
     18 C15         47.5800    12.6240     6.9230 c3         1 3EA       0.166600
     19 C16         48.4010    12.1760     8.1160 c3         1 3EA      -0.084400
     20 C17         47.5880    12.1620     9.3960 c3         1 3EA       0.163600
     21 O18         48.4280    11.7020    10.4620 os         1 3EA      -0.377100
     22 C19         47.7700    11.4550    11.6560 ca         1 3EA       0.046100
     23 C20         48.1060    12.2100    12.7640 ca         1 3EA      -0.084000
     24 C24         46.8190    10.4180    11.7320 ca         1 3EA      -0.153000
     25 C23         46.1810    10.1260    12.9260 ca         1 3EA      -0.076000
     26 C22         46.5120    10.8860    14.0480 ca         1 3EA      -0.040200
     27 C21         47.4830    11.9240    13.9890 ca         1 3EA      -0.088800
     28 C25         47.5770    12.4720    15.3080 cc         1 3EA      -0.287200
     29 C26         46.6900    11.7740    16.0890 cd         1 3EA      -0.130100
     30 N27         46.0350    10.8270    15.3390 na         1 3EA      -0.026700
     31 C28         45.1100     9.8440    15.8560 c3         1 3EA      -0.088400
     32 C29         45.7290     8.4820    16.2710 c          1 3EA       0.702000
     33 O31         46.9690     8.3400    16.1910 o          1 3EA      -0.710000
     34 O30         44.8860     7.6410    16.6710 o          1 3EA      -0.710000
     35 H131        43.4150     9.7480    10.2720 hc         1 3EA       0.038033
     36 H132        44.7740     8.9140     9.5160 hc         1 3EA       0.038033
     37 H133        43.1210     8.5270     9.0280 hc         1 3EA       0.038033
     38 H121        44.4910    11.2400     8.5900 hc         1 3EA       0.041200
     39 H122        42.8590    10.8430     8.0840 hc         1 3EA       0.041200
     40 H111        43.7450     9.0790     6.5630 hc         1 3EA       0.058700
     41 H112        45.3830     9.4400     7.0910 hc         1 3EA       0.058700
     42 H7          44.7160    13.8290     3.1610 ha         1 3EA       0.128000
     43 H8          46.4680    13.5750     4.8670 ha         1 3EA       0.125000
     44 H151        47.1560    13.6190     7.0860 h1         1 3EA       0.037700
     45 H152        48.1930    12.6460     6.0190 h1         1 3EA       0.037700
     46 H161        49.2490    12.8570     8.2210 hc         1 3EA       0.065700
     47 H162        48.8000    11.1770     7.9270 hc         1 3EA       0.065700
     48 H171        46.7270    11.5020     9.2910 h1         1 3EA       0.033700
     49 H172        47.2210    13.1680     9.6340 h1         1 3EA       0.033700
     50 H20         48.8430    12.9990    12.6740 ha         1 3EA       0.107000
     51 H24         46.5970     9.8410    10.8450 ha         1 3EA       0.102000
     52 H23         45.4570     9.3230    12.9800 ha         1 3EA       0.124000
     53 H25         48.2090    13.2820    15.6330 ha         1 3EA       0.186000
     54 H26         46.4610    11.8790    17.1380 h4         1 3EA       0.205000
     55 H281        44.3360     9.6550    15.1110 h1         1 3EA       0.042200
     56 H282        44.6150    10.2670    16.7310 h1         1 3EA       0.042200
@<TRIPOS>BOND
     1     1     2 1   
     2     1    35 1   
     3     1    36 1   
     4     1    37 1   
     5     2     3 1   
     6     2    38 1   
     7     2    39 1   
     8     3     4 1   
     9     3    40 1   
    10     3    41 1   
    11     4     5 ar  
    12     4    16 ar  
    13     5     6 1   
    14     5    13 ar  
    15     6     7 1   
    16     7     8 2   
    17     8     9 1   
    18     8    13 1   
    19     9    10 1   
    20     9    11 1   
    21     9    12 1   
    22    13    14 ar  
    23    14    15 ar  
    24    14    42 1   
    25    15    16 ar  
    26    15    43 1   
    27    16    17 1   
    28    17    18 1   
    29    18    19 1   
    30    18    44 1   
    31    18    45 1   
    32    19    20 1   
    33    19    46 1   
    34    19    47 1   
    35    20    21 1   
    36    20    48 1   
    37    20    49 1   
    38    21    22 1   
    39    22    23 ar  
    40    22    24 ar  
    41    23    27 ar  
    42    23    50 1   
    43    24    25 ar  
    44    24    51 1   
    45    25    26 ar  
    46    25    52 1   
    47    26    27 ar  
    48    26    30 1   
    49    27    28 1   
    50    28    29 2   
    51    28    53 1   
    52    29    30 1   
    53    29    54 1   
    54    30    31 1   
    55    31    32 1   
    56    31    55 1   
    57    31    56 1   
    58    32    33 1   
    59    32    34 1   
@<TRIPOS>SUBSTRUCTURE
     1 3EA         1 TEMP              0 ****  ****    0 ROOT
