@<TRIPOS>MOLECULE
3EB
   22    22     1     0     0
SMALL
No Charge or Current Charge


@<TRIPOS>ATOM
      1 C           -3.8410     0.5220     0.0940 c          1 3EB       0.716000
      2 OXT         -4.6840    -0.3570     0.1860 o          1 3EB      -0.758500
      3 CA          -2.3980     0.1950     0.5110 c3         1 3EB      -0.199400
      4 OAB          2.9550     2.1380    -0.5570 o          1 3EB      -0.738500
      5 OAD          4.4100     0.7150     0.1230 o          1 3EB      -0.738500
      6 CAE          0.1560    -2.0250     0.0760 ca         1 3EB      -0.140000
      7 CAF          1.4810    -2.3450     0.4050 ca         1 3EB      -0.161000
      8 CAG         -0.1740    -0.7230    -0.3390 ca         1 3EB      -0.090300
      9 CAH          2.4860    -1.3670     0.3220 ca         1 3EB      -0.107000
     10 CAM          0.8350     0.2570    -0.4190 ca         1 3EB      -0.085000
     11 CAN          2.1790    -0.0490    -0.0910 ca         1 3EB      -0.144600
     12 O           -4.0750     1.6340    -0.3550 o          1 3EB      -0.758500
     13 C2          -1.6150    -0.3720    -0.6960 c3         1 3EB      -0.011100
     14 HA1C        -1.8670     1.1060     0.8110 hc         1 3EB       0.022700
     15 HA2C        -2.3870    -0.5950     1.2730 hc         1 3EB       0.022700
     16 H21C        -2.1340    -1.2610    -1.0760 hc         1 3EB       0.036200
     17 H22C        -1.6300     0.3610    -1.5120 hc         1 3EB       0.036200
     18 HAE         -0.6160    -2.7890     0.1450 ha         1 3EB       0.082000
     19 HAF          1.7320    -3.3540     0.7250 ha         1 3EB       0.067000
     20 HAH          3.5070    -1.6380     0.5820 ha         1 3EB       0.108000
     21 HAM          0.5700     1.2630    -0.7370 ha         1 3EB       0.127000
     22 CAL          3.2640     1.0150    -0.1810 c          1 3EB       0.714600
@<TRIPOS>BOND
     1     1     2 1   
     2     1     3 1   
     3     1    12 1   
     4     3    13 1   
     5     3    14 1   
     6     3    15 1   
     7     4    22 1   
     8     5    22 1   
     9     6     7 ar  
    10     6     8 ar  
    11     6    18 1   
    12     7     9 ar  
    13     7    19 1   
    14     8    10 ar  
    15     8    13 1   
    16     9    11 ar  
    17     9    20 1   
    18    10    11 ar  
    19    10    21 1   
    20    11    22 1   
    21    13    16 1   
    22    13    17 1   
@<TRIPOS>SUBSTRUCTURE
     1 3EB         1 TEMP              0 ****  ****    0 ROOT
