@<TRIPOS>MOLECULE
3EB
   22    22     1     0     0
SMALL
bcc


@<TRIPOS>ATOM
      1 C           -3.8390     0.4720     0.1840 c          1 3EB       0.926600
      2 OXT         -4.4960     0.7790     1.2010 o          1 3EB      -0.863800
      3 CA          -2.3740     0.0700     0.4310 c3         1 3EB      -0.199400
      4 OAB          2.8610     2.2080    -0.2240 o          1 3EB      -0.843800
      5 OAD          4.3620     0.6830     0.3930 o          1 3EB      -0.843800
      6 CAE          0.1730    -2.0040    -0.1420 ca         1 3EB      -0.158000
      7 CAF          1.4680    -2.3370     0.2340 ca         1 3EB      -0.179000
      8 CAG         -0.1580    -0.6870    -0.4580 ca         1 3EB      -0.090300
      9 CAH          2.4500    -1.3580     0.3020 ca         1 3EB      -0.125000
     10 CAM          0.8430     0.2790    -0.3850 ca         1 3EB      -0.103000
     11 CAN          2.1470    -0.0350    -0.0090 ca         1 3EB      -0.144600
     12 O           -4.2570     0.4630    -0.9900 o          1 3EB      -0.863800
     13 C2          -1.5710    -0.3100    -0.8100 c3         1 3EB      -0.011100
     14 HA1C        -1.8740     0.8950     0.9510 hc         1 3EB       0.022700
     15 HA2C        -2.3580    -0.7620     1.1450 hc         1 3EB       0.022700
     16 H21C        -2.0590    -1.1430    -1.3210 hc         1 3EB       0.036200
     17 H22C        -1.5670     0.5240    -1.5140 hc         1 3EB       0.036200
     18 HAE         -0.5880    -2.7750    -0.1940 ha         1 3EB       0.100000
     19 HAF          1.7120    -3.3640     0.4740 ha         1 3EB       0.085000
     20 HAH          3.4570    -1.6240     0.5930 ha         1 3EB       0.126000
     21 HAM          0.6030     1.3070    -0.6290 ha         1 3EB       0.145000
     22 CAL          3.2170     1.0480     0.0590 c          1 3EB       0.925200
@<TRIPOS>BOND
     1     1     2 1   
     2     1     3 1   
     3     1    12 1   
     4     3    13 1   
     5     3    14 1   
     6     3    15 1   
     7     4    22 1   
     8     5    22 1   
     9     6     7 ar  
    10     6     8 ar  
    11     6    18 1   
    12     7     9 ar  
    13     7    19 1   
    14     8    10 ar  
    15     8    13 1   
    16     9    11 ar  
    17     9    20 1   
    18    10    11 ar  
    19    10    21 1   
    20    11    22 1   
    21    13    16 1   
    22    13    17 1   
@<TRIPOS>SUBSTRUCTURE
     1 3EB         1 TEMP              0 ****  ****    0 ROOT
