@<TRIPOS>MOLECULE
3EC
   23    23     1     0     0
SMALL
bcc


@<TRIPOS>ATOM
      1 OAI          3.5680     2.0970     0.2380 o          1 3EC      -0.493100
      2 CAL          3.7710     0.9100     0.3740 c          1 3EC       0.497400
      3 CAK          2.7940    -0.1240     0.1370 cc         1 3EC       0.129200
      4 OAJ          1.5470     0.2090    -0.2680 os         1 3EC      -0.271800
      5 CAH          2.8990    -1.4800     0.2460 cd         1 3EC      -0.204300
      6 CAG          1.6360    -2.0030    -0.1150 cd         1 3EC      -0.269300
      7 CAF          0.8560    -0.9280    -0.4220 cc         1 3EC       0.276000
      8 CAE         -0.5530    -0.8260    -0.8570 c3         1 3EC      -0.015600
      9 SAD         -1.5710    -0.1420     0.4940 ss         1 3EC      -0.324200
     10 CAC         -3.1500     0.0180    -0.3870 c3         1 3EC       0.010700
     11 CAB         -4.1990     0.6040     0.5480 c3         1 3EC       0.160800
     12 NAA         -5.4560     0.7480    -0.1660 n8         1 3EC      -0.888800
     13 H1           4.7470     0.5140     0.6990 h4         1 3EC       0.006200
     14 H2           3.7780    -2.0270     0.5500 ha         1 3EC       0.163000
     15 H3           1.3350    -3.0370    -0.1470 ha         1 3EC       0.166000
     16 H4          -0.6390    -0.1760    -1.7300 h1         1 3EC       0.079200
     17 H5          -0.9140    -1.8170    -1.1290 h1         1 3EC       0.079200
     18 H6          -3.0190     0.6690    -1.2530 h1         1 3EC       0.065200
     19 H7          -3.4630    -0.9670    -0.7420 h1         1 3EC       0.065200
     20 H8          -4.2660    -0.0180     1.4510 h1         1 3EC       0.043200
     21 H9          -3.8720     1.5930     0.8730 h1         1 3EC       0.043200
     22 H10         -5.8760    -0.1640    -0.3030 hn         1 3EC       0.341300
     23 H11         -6.1100     1.2680     0.4040 hn         1 3EC       0.341300
@<TRIPOS>BOND
     1     1     2 2   
     2     2     3 1   
     3     2    13 1   
     4     3     4 1   
     5     3     5 2   
     6     4     7 1   
     7     5     6 1   
     8     5    14 1   
     9     6     7 2   
    10     6    15 1   
    11     7     8 1   
    12     8     9 1   
    13     8    16 1   
    14     8    17 1   
    15     9    10 1   
    16    10    11 1   
    17    10    18 1   
    18    10    19 1   
    19    11    12 1   
    20    11    20 1   
    21    11    21 1   
    22    12    22 1   
    23    12    23 1   
@<TRIPOS>SUBSTRUCTURE
     1 3EC         1 TEMP              0 ****  ****    0 ROOT
