@<TRIPOS>MOLECULE
3EC
   23    23     1     0     0
SMALL
No Charge or Current Charge


@<TRIPOS>ATOM
      1 OAI          4.5020     1.6590    -0.5270 o          1 3EC      -0.493100
      2 CAL          4.3300     0.5510    -0.0260 c          1 3EC       0.497400
      3 CAK          3.0410    -0.1770    -0.0090 cc         1 3EC       0.019500
      4 OAJ          1.8760     0.3150    -0.5620 os         1 3EC      -0.183000
      5 CAH          2.8140    -1.4120     0.5410 cd         1 3EC      -0.121000
      6 CAG          1.4510    -1.7050     0.3240 cd         1 3EC      -0.186000
      7 CAF          0.9070    -0.6410    -0.3450 cc         1 3EC       0.166300
      8 CAE         -0.4930    -0.3970    -0.8390 c3         1 3EC       0.032300
      9 SAD         -1.6840    -0.1580     0.5610 ss         1 3EC      -0.420000
     10 CAC         -3.2500     0.1040    -0.3940 c3         1 3EC       0.058600
     11 CAB         -4.4440     0.3430     0.5580 c3         1 3EC       0.160800
     12 NAA         -5.7150     0.5580    -0.1740 n8         1 3EC      -0.999200
     13 H1           5.1740     0.0150     0.4640 h4         1 3EC       0.006200
     14 H2           3.5430    -2.0390     1.0450 ha         1 3EC       0.145000
     15 H3           0.9230    -2.6030     0.6290 ha         1 3EC       0.148000
     16 H4          -0.5030     0.4950    -1.4780 h1         1 3EC       0.079200
     17 H5          -0.8130    -1.2550    -1.4440 h1         1 3EC       0.079200
     18 H6          -3.1260     0.9730    -1.0540 h1         1 3EC       0.065200
     19 H7          -3.4420    -0.7800    -1.0150 h1         1 3EC       0.065200
     20 H8          -4.5600    -0.5230     1.2250 h1         1 3EC       0.043200
     21 H9          -4.2410     1.2280     1.1770 h1         1 3EC       0.043200
     22 H10         -5.9700    -0.3070    -0.6670 hn         1 3EC       0.396500
     23 H11         -6.4770     0.6760     0.5070 hn         1 3EC       0.396500
@<TRIPOS>BOND
     1     1     2 2   
     2     2     3 1   
     3     2    13 1   
     4     3     4 1   
     5     3     5 2   
     6     4     7 1   
     7     5     6 1   
     8     5    14 1   
     9     6     7 2   
    10     6    15 1   
    11     7     8 1   
    12     8     9 1   
    13     8    16 1   
    14     8    17 1   
    15     9    10 1   
    16    10    11 1   
    17    10    18 1   
    18    10    19 1   
    19    11    12 1   
    20    11    20 1   
    21    11    21 1   
    22    12    22 1   
    23    12    23 1   
@<TRIPOS>SUBSTRUCTURE
     1 3EC         1 TEMP              0 ****  ****    0 ROOT
