@<TRIPOS>MOLECULE
3ED
   52    55     1     0     0
SMALL
bcc


@<TRIPOS>ATOM
      1 C02        -13.3390    26.6860    33.9840 c5         1 3ED       0.135500
      2 C03        -13.9080    27.8870    33.2180 c5         1 3ED       0.151100
      3 C04        -13.7020    29.2470    33.8530 c3         1 3ED      -0.098100
      4 C06        -15.5980    26.3020    33.4440 c5         1 3ED       0.146400
      5 C07        -14.2630    25.5530    33.4920 c5         1 3ED      -0.079000
      6 C08        -13.8300    25.1000    32.0870 c6         1 3ED      -0.096900
      7 C09        -14.6240    23.9020    31.5750 c6         1 3ED       0.213800
      8 C11        -13.7080    21.7730    32.3820 cc         1 3ED       0.455600
      9 C13        -12.4500    20.6030    30.8580 cd         1 3ED       0.557900
     10 C14        -11.9400    20.4240    29.4660 c3         1 3ED      -0.146400
     11 C16        -11.2020    18.6250    31.4870 ca         1 3ED       0.044600
     12 C17         -9.8270    18.7950    31.6190 ca         1 3ED       0.032400
     13 C19         -8.9720    17.7420    31.3100 ca         1 3ED       0.027400
     14 C21         -9.4880    16.5280    30.8830 ca         1 3ED      -0.107000
     15 C22        -10.8580    16.3660    30.7600 ca         1 3ED      -0.114000
     16 C23        -11.7150    17.4110    31.0640 ca         1 3ED      -0.103000
     17 C24        -13.3410    20.9150    33.4040 cd         1 3ED      -0.439200
     18 C25        -12.4860    19.8180    33.1540 c          1 3ED       0.731700
     19 C27        -15.1010    23.1920    33.8190 c6         1 3ED       0.213800
     20 C28        -14.2980    24.3390    34.4230 c6         1 3ED      -0.096900
     21 N01        -13.4600    26.8700    35.4200 n8         1 3ED      -0.880800
     22 N10        -14.5620    22.8090    32.5300 nh         1 3ED      -0.648400
     23 N12        -13.2270    21.5980    31.1140 nc         1 3ED      -0.705300
     24 N15        -12.0750    19.6980    31.8020 n          1 3ED      -0.327500
     25 O05        -15.3000    27.6280    33.0570 os         1 3ED      -0.408600
     26 O26        -12.0790    18.9980    33.9650 o          1 3ED      -0.620500
     27 CL18        -9.2100    20.3080    32.1410 cl         1 3ED      -0.061400
     28 CL20        -7.2690    17.9360    31.4570 cl         1 3ED      -0.073400
     29 H1         -12.3030    26.5010    33.6630 h1         1 3ED       0.032700
     30 H2         -13.4340    27.9050    32.2270 h1         1 3ED       0.038700
     31 H3         -12.6370    29.4560    33.9680 hc         1 3ED       0.044700
     32 H4         -14.1190    30.0320    33.2210 hc         1 3ED       0.044700
     33 H5         -14.1750    29.3160    34.8330 hc         1 3ED       0.044700
     34 H6         -16.0810    26.2880    34.4300 h1         1 3ED       0.047700
     35 H7         -16.3060    25.8710    32.7300 h1         1 3ED       0.047700
     36 H8         -12.7700    24.8300    32.1090 hc         1 3ED       0.057200
     37 H9         -13.9310    25.9130    31.3630 hc         1 3ED       0.057200
     38 H10        -15.6750    24.1660    31.4300 h1         1 3ED       0.065200
     39 H11        -14.2390    23.5760    30.6140 h1         1 3ED       0.065200
     40 H12        -12.3350    21.2190    28.8410 hc         1 3ED       0.069033
     41 H13        -10.8500    20.4650    29.4310 hc         1 3ED       0.069033
     42 H14        -12.2430    19.4640    29.0490 hc         1 3ED       0.069033
     43 H15         -8.8150    15.7150    30.6470 ha         1 3ED       0.153000
     44 H16        -11.2560    15.4180    30.4260 ha         1 3ED       0.145000
     45 H17        -12.7860    17.2940    30.9720 ha         1 3ED       0.151000
     46 H18        -13.6660    21.0460    34.4250 ha         1 3ED       0.162000
     47 H19        -16.1400    23.4990    33.6660 h1         1 3ED       0.065200
     48 H20        -15.1360    22.3400    34.4930 h1         1 3ED       0.065200
     49 H21        -13.2780    23.9900    34.6200 hc         1 3ED       0.057200
     50 H22        -14.7390    24.6080    35.3850 hc         1 3ED       0.057200
     51 H23        -13.0600    26.0730    35.8980 hn         1 3ED       0.342300
     52 H24        -12.8930    27.6590    35.7080 hn         1 3ED       0.342300
@<TRIPOS>BOND
     1     1     2 1   
     2     1     5 1   
     3     1    21 1   
     4     1    29 1   
     5     2     3 1   
     6     2    25 1   
     7     2    30 1   
     8     3    31 1   
     9     3    32 1   
    10     3    33 1   
    11     4     5 1   
    12     4    25 1   
    13     4    34 1   
    14     4    35 1   
    15     5     6 1   
    16     5    20 1   
    17     6     7 1   
    18     6    36 1   
    19     6    37 1   
    20     7    22 1   
    21     7    38 1   
    22     7    39 1   
    23     8    17 2   
    24     8    22 1   
    25     8    23 1   
    26     9    10 1   
    27     9    23 2   
    28     9    24 1   
    29    10    40 1   
    30    10    41 1   
    31    10    42 1   
    32    11    12 ar  
    33    11    16 ar  
    34    11    24 1   
    35    12    13 ar  
    36    12    27 1   
    37    13    14 ar  
    38    13    28 1   
    39    14    15 ar  
    40    14    43 1   
    41    15    16 ar  
    42    15    44 1   
    43    16    45 1   
    44    17    18 1   
    45    17    46 1   
    46    18    24 1   
    47    18    26 2   
    48    19    20 1   
    49    19    22 1   
    50    19    47 1   
    51    19    48 1   
    52    20    49 1   
    53    20    50 1   
    54    21    51 1   
    55    21    52 1   
@<TRIPOS>SUBSTRUCTURE
     1 3ED         1 TEMP              0 ****  ****    0 ROOT
