@<TRIPOS>MOLECULE
3ED
   52    55     1     0     0
SMALL
No Charge or Current Charge


@<TRIPOS>ATOM
      1 C02        -13.6270    26.9450    34.3500 c5         1 3ED       0.135500
      2 C03        -14.0540    28.1000    33.3640 c5         1 3ED       0.174300
      3 C04        -14.1370    29.5260    33.9510 c3         1 3ED      -0.098100
      4 C06        -15.6220    26.3430    33.2450 c5         1 3ED       0.169600
      5 C07        -14.2330    25.7130    33.5880 c5         1 3ED      -0.079000
      6 C08        -13.4080    25.3150    32.3080 c6         1 3ED      -0.096900
      7 C09        -13.9990    24.1000    31.5470 c6         1 3ED       0.213800
      8 C11        -13.3610    21.8000    32.3320 cc         1 3ED       0.455600
      9 C13        -12.4340    20.3060    30.8500 cd         1 3ED       0.557900
     10 C14        -12.2520    19.9410    29.3930 c3         1 3ED      -0.146400
     11 C16        -11.1260    18.4240    31.4450 ca         1 3ED       0.044600
     12 C17         -9.7350    18.5350    31.2160 ca         1 3ED       0.124000
     13 C19         -9.0020    17.4060    30.7930 ca         1 3ED       0.119000
     14 C21         -9.6520    16.1730    30.6080 ca         1 3ED      -0.089000
     15 C22        -11.0330    16.0610    30.8470 ca         1 3ED      -0.096000
     16 C23        -11.7660    17.1830    31.2680 ca         1 3ED      -0.085000
     17 C24        -12.8530    21.1070    33.3870 cd         1 3ED      -0.489200
     18 C25        -12.0600    19.9120    33.2110 c          1 3ED       0.589200
     19 C27        -14.9380    23.2200    33.6710 c6         1 3ED       0.213800
     20 C28        -14.3300    24.4090    34.4530 c6         1 3ED      -0.096900
     21 N01        -14.1410    27.1000    35.7350 n8         1 3ED      -0.991200
     22 N10        -14.1280    22.9310    32.4600 nh         1 3ED      -0.648400
     23 N12        -13.1600    21.4050    31.0420 nc         1 3ED      -0.705300
     24 N15        -11.8920    19.5550    31.8880 n          1 3ED      -0.260500
     25 O05        -15.3410    27.7020    32.8250 os         1 3ED      -0.455000
     26 O26        -11.5860    19.2830    34.1440 o          1 3ED      -0.545000
     27 Cl18        -8.9230    20.0900    31.4510 cl         1 3ED      -0.153000
     28 Cl20        -7.2680    17.5080    30.4880 cl         1 3ED      -0.165000
     29 H1         -12.5320    26.8750    34.4230 h1         1 3ED       0.032700
     30 H2         -13.3450    28.1440    32.5260 h1         1 3ED       0.038700
     31 H3         -13.1790    29.8240    34.3930 hc         1 3ED       0.044700
     32 H4         -14.3820    30.2540    33.1680 hc         1 3ED       0.044700
     33 H5         -14.9080    29.5990    34.7270 hc         1 3ED       0.044700
     34 H6         -16.2750    26.3810    34.1290 h1         1 3ED       0.047700
     35 H7         -16.1600    25.8110    32.4500 h1         1 3ED       0.047700
     36 H8         -12.3750    25.0790    32.6000 hc         1 3ED       0.057200
     37 H9         -13.3350    26.1510    31.6020 hc         1 3ED       0.057200
     38 H10        -14.9830    24.3630    31.1330 h1         1 3ED       0.065200
     39 H11        -13.3470    23.8790    30.6900 h1         1 3ED       0.065200
     40 H12        -12.7610    20.6470    28.7260 hc         1 3ED       0.069033
     41 H13        -11.1920    19.9440    29.1150 hc         1 3ED       0.069033
     42 H14        -12.6610    18.9470    29.1810 hc         1 3ED       0.069033
     43 H15         -9.0840    15.3050    30.2820 ha         1 3ED       0.135000
     44 H16        -11.5330    15.1040    30.7070 ha         1 3ED       0.127000
     45 H17        -12.8340    17.0900    31.4560 ha         1 3ED       0.133000
     46 H18        -12.9880    21.4170    34.4120 ha         1 3ED       0.212000
     47 H19        -15.9680    23.4670    33.3770 h1         1 3ED       0.065200
     48 H20        -15.0080    22.3410    34.3270 h1         1 3ED       0.065200
     49 H21        -13.3320    24.1300    34.8190 hc         1 3ED       0.057200
     50 H22        -14.9480    24.5830    35.3440 hc         1 3ED       0.057200
     51 H23        -13.7810    26.3330    36.3130 hn         1 3ED       0.397500
     52 H24        -13.7260    27.9370    36.1590 hn         1 3ED       0.397500
@<TRIPOS>BOND
     1     1     2 1   
     2     1     5 1   
     3     1    21 1   
     4     1    29 1   
     5     2     3 1   
     6     2    25 1   
     7     2    30 1   
     8     3    31 1   
     9     3    32 1   
    10     3    33 1   
    11     4     5 1   
    12     4    25 1   
    13     4    34 1   
    14     4    35 1   
    15     5     6 1   
    16     5    20 1   
    17     6     7 1   
    18     6    36 1   
    19     6    37 1   
    20     7    22 1   
    21     7    38 1   
    22     7    39 1   
    23     8    17 2   
    24     8    22 1   
    25     8    23 1   
    26     9    10 1   
    27     9    23 2   
    28     9    24 1   
    29    10    40 1   
    30    10    41 1   
    31    10    42 1   
    32    11    12 ar  
    33    11    16 ar  
    34    11    24 1   
    35    12    13 ar  
    36    12    27 1   
    37    13    14 ar  
    38    13    28 1   
    39    14    15 ar  
    40    14    43 1   
    41    15    16 ar  
    42    15    44 1   
    43    16    45 1   
    44    17    18 1   
    45    17    46 1   
    46    18    24 1   
    47    18    26 2   
    48    19    20 1   
    49    19    22 1   
    50    19    47 1   
    51    19    48 1   
    52    20    49 1   
    53    20    50 1   
    54    21    51 1   
    55    21    52 1   
@<TRIPOS>SUBSTRUCTURE
     1 3ED         1 TEMP              0 ****  ****    0 ROOT
