@<TRIPOS>MOLECULE
3EE
   23    23     1     0     0
SMALL
bcc


@<TRIPOS>ATOM
      1 O1          -0.0850    -1.6670     0.4390 o          1 3EE      -0.563100
      2 C2           0.1360    -0.4940     0.1780 c          1 3EE       0.605700
      3 C3          -1.0280     0.4630     0.0390 c3         1 3EE      -0.293400
      4 C9          -2.3310    -0.1780    -0.3800 c          1 3EE       0.439100
      5 O2          -2.3700    -1.0950    -1.1620 o          1 3EE      -0.540100
      6 C10         -3.6420     0.4560     0.1740 c          1 3EE       0.861600
      7 O3          -4.6920    -0.0590    -0.2320 o          1 3EE      -0.800800
      8 O4          -3.4900     1.4130     0.9520 o          1 3EE      -0.800800
      9 C1           1.5030     0.0330     0.0520 ca         1 3EE      -0.256600
     10 C4           2.6340    -0.8300     0.0850 ca         1 3EE       0.248600
     11 N            2.5410    -2.1740     0.1840 nv         1 3EE      -0.862200
     12 C6           3.9170    -0.2520    -0.0290 ca         1 3EE      -0.253000
     13 C8           4.0840     1.1060    -0.1510 ca         1 3EE      -0.061000
     14 C7           2.9800     1.9630    -0.1690 ca         1 3EE      -0.221000
     15 C5           1.7220     1.4170    -0.0710 ca         1 3EE      -0.034000
     16 H1          -1.1550     1.0020     0.9810 hc         1 3EE       0.082200
     17 H2          -0.8250     1.2400    -0.7050 hc         1 3EE       0.082200
     18 H4           1.6630    -2.5880     0.4450 hn         1 3EE       0.436300
     19 H5           3.3770    -2.7030     0.3570 hn         1 3EE       0.436300
     20 H6           4.7810    -0.9050    -0.0110 ha         1 3EE       0.116000
     21 H7           5.0860     1.5100    -0.2300 ha         1 3EE       0.113000
     22 H8           3.1100     3.0320    -0.2550 ha         1 3EE       0.126000
     23 H9           0.8750     2.0900    -0.0760 ha         1 3EE       0.140000
@<TRIPOS>BOND
     1     1     2 2   
     2     2     3 1   
     3     2     9 1   
     4     3     4 1   
     5     3    16 1   
     6     3    17 1   
     7     4     5 2   
     8     4     6 1   
     9     6     7 1   
    10     6     8 1   
    11     9    10 ar  
    12     9    15 ar  
    13    10    11 1   
    14    10    12 ar  
    15    11    18 1   
    16    11    19 1   
    17    12    13 ar  
    18    12    20 1   
    19    13    14 ar  
    20    13    21 1   
    21    14    15 ar  
    22    14    22 1   
    23    15    23 1   
@<TRIPOS>SUBSTRUCTURE
     1 3EE         1 TEMP              0 ****  ****    0 ROOT
