@<TRIPOS>MOLECULE
3EE
   23    23     1     0     0
SMALL
No Charge or Current Charge


@<TRIPOS>ATOM
      1 O1          -0.2440    -0.5770     1.7270 o          1 3EE      -0.563100
      2 C2           0.0260     0.2050     0.8230 c          1 3EE       0.605700
      3 C3          -1.0830     1.0360     0.1990 c3         1 3EE      -0.293400
      4 C9          -1.8790     0.0900    -0.6990 c          1 3EE       0.439100
      5 O2          -1.5080    -0.1120    -1.8570 o          1 3EE      -0.540100
      6 C10         -3.1810    -0.6410    -0.0650 c          1 3EE       0.651000
      7 O3          -3.4310    -1.7940    -0.4090 o          1 3EE      -0.695500
      8 O4          -3.8890    -0.0080     0.7150 o          1 3EE      -0.695500
      9 C1           1.4400     0.3800     0.3430 ca         1 3EE      -0.256600
     10 C4           2.2780    -0.7320     0.1300 ca         1 3EE       0.387000
     11 N            1.8430    -2.0040     0.3510 nv         1 3EE      -1.111000
     12 C6           3.5900    -0.5540    -0.3270 ca         1 3EE      -0.235000
     13 C8           4.0910     0.7340    -0.5690 ca         1 3EE      -0.043000
     14 C7           3.2700     1.8480    -0.3480 ca         1 3EE      -0.203000
     15 C5           1.9520     1.6760     0.1070 ca         1 3EE      -0.016000
     16 H1          -1.7220     1.3940     1.0120 hc         1 3EE       0.082200
     17 H2          -0.6710     1.8350    -0.4220 hc         1 3EE       0.082200
     18 H4           1.0330    -2.1090     0.9620 hn         1 3EE       0.491500
     19 H5           2.5350    -2.7480     0.4020 hn         1 3EE       0.491500
     20 H6           4.2310    -1.4140    -0.4970 ha         1 3EE       0.098000
     21 H7           5.1120     0.8670    -0.9230 ha         1 3EE       0.095000
     22 H8           3.6560     2.8490    -0.5260 ha         1 3EE       0.108000
     23 H9           1.3410     2.5590     0.2880 ha         1 3EE       0.122000
@<TRIPOS>BOND
     1     1     2 2   
     2     2     3 1   
     3     2     9 1   
     4     3     4 1   
     5     3    16 1   
     6     3    17 1   
     7     4     5 2   
     8     4     6 1   
     9     6     7 1   
    10     6     8 1   
    11     9    10 ar  
    12     9    15 ar  
    13    10    11 1   
    14    10    12 ar  
    15    11    18 1   
    16    11    19 1   
    17    12    13 ar  
    18    12    20 1   
    19    13    14 ar  
    20    13    21 1   
    21    14    15 ar  
    22    14    22 1   
    23    15    23 1   
@<TRIPOS>SUBSTRUCTURE
     1 3EE         1 TEMP              0 ****  ****    0 ROOT
