@<TRIPOS>MOLECULE
3EF
   87    91     1     0     0
SMALL
bcc


@<TRIPOS>ATOM
      1 OAB          5.5680    -0.2950    -2.0720 o          1 3EF      -0.613000
      2 CAH          9.6390     2.8840     2.4930 ca         1 3EF      -0.133000
      3 CAK          8.7250     3.6150     1.7440 ca         1 3EF      -0.140500
      4 CAL          9.8460     1.5410     2.2100 ca         1 3EF      -0.140500
      5 CAQ          8.0220     3.0030     0.7160 ca         1 3EF      -0.103500
      6 CAR          9.1370     0.9310     1.1820 ca         1 3EF      -0.103500
      7 CBB          7.4420     0.9930    -0.6700 c3         1 3EF       0.206700
      8 OBJ          6.1360     0.7370    -0.1520 os         1 3EF      -0.444900
      9 CBM          5.2880     0.0690    -0.9490 c          1 3EF       0.748100
     10 CBP          8.2220     1.6560     0.4250 ca         1 3EF      -0.078300
     11 OAD          1.2990     0.2490     0.8430 o          1 3EF      -0.813000
     12 PBY          1.4680    -0.0130    -0.6410 p5         1 3EF       1.064400
     13 OAG          1.5080     1.1620    -1.5970 o          1 3EF      -0.813000
     14 CBX          3.0580    -0.9620    -0.8440 c3         1 3EF      -0.051500
     15 NBI          4.1050    -0.1050    -0.3360 ns         1 3EF      -0.510900
     16 CBE          3.0710    -2.3210    -0.1250 c3         1 3EF      -0.046100
     17 CBQ          4.4080    -2.9950    -0.2350 ca         1 3EF      -0.044300
     18 CAS          5.3960    -2.7910     0.7260 ca         1 3EF      -0.121000
     19 CAM          6.6560    -3.3570     0.5840 ca         1 3EF      -0.136000
     20 CAI          6.9450    -4.1470    -0.5200 ca         1 3EF      -0.154000
     21 CAN          5.9650    -4.3650    -1.4810 ca         1 3EF      -0.136000
     22 CAT          4.7110    -3.7900    -1.3380 ca         1 3EF      -0.121000
     23 CAJ         -6.8470     4.9760     1.1570 ca         1 3EF      -0.141000
     24 CAO         -7.2510     4.5760    -0.1120 ca         1 3EF      -0.144500
     25 CAP         -5.6060     4.5840     1.6380 ca         1 3EF      -0.144500
     26 CAU         -6.4220     3.7880    -0.8930 ca         1 3EF      -0.104500
     27 CAV         -4.7720     3.7980     0.8560 ca         1 3EF      -0.104500
     28 CBA         -3.1000     1.8850    -0.8200 cc         1 3EF      -0.438600
     29 CBC         -1.5470     0.3220    -2.2040 c3         1 3EF      -0.140700
     30 NBG         -4.5580     2.2790    -2.4750 nd         1 3EF      -0.382300
     31 OBK         -3.5730     1.4500    -2.9100 os         1 3EF      -0.071100
     32 CBN         -2.2770    -1.7570    -1.0360 c          1 3EF       0.669100
     33 CBS         -2.7090     1.2040    -1.9270 cd         1 3EF       0.359000
     34 CBT         -5.1710     3.3920    -0.4170 ca         1 3EF      -0.101500
     35 CBU         -4.2910     2.5430    -1.2250 cc         1 3EF       0.366800
     36 CBV         -1.2290    -0.6490    -1.0470 c3         1 3EF      -0.095700
     37 N           -3.4360    -1.4340    -0.4470 ns         1 3EF      -0.542900
     38 CA          -4.6230    -2.2370    -0.6050 c3         1 3EF      -0.025300
     39 C           -4.9990    -2.4640    -2.0930 c          1 3EF       0.929600
     40 O           -4.6120    -1.6170    -2.9130 o          1 3EF      -0.830800
     41 CB          -5.8030    -1.5370     0.0820 c3         1 3EF      -0.041100
     42 CG          -5.5300    -1.1320     1.5040 ca         1 3EF      -0.077300
     43 CD1         -5.3640    -2.0840     2.5100 ca         1 3EF      -0.094000
     44 CD2         -5.4080     0.2060     1.8600 ca         1 3EF      -0.094000
     45 CE1         -5.0840    -1.7180     3.8150 ca         1 3EF      -0.195000
     46 CE2         -5.1250     0.5940     3.1640 ca         1 3EF      -0.195000
     47 CZ          -4.9590    -0.3700     4.1510 ca         1 3EF       0.106100
     48 OH          -4.6810    -0.0640     5.4360 oh         1 3EF      -0.513100
     49 OXT         -5.7160    -3.4630    -2.3060 o          1 3EF      -0.830800
     50 HAH         10.1890     3.3620     3.2930 ha         1 3EF       0.117000
     51 HAK          8.5620     4.6630     1.9590 ha         1 3EF       0.121500
     52 HAL         10.5580     0.9660     2.7870 ha         1 3EF       0.121500
     53 HAQ          7.3150     3.5810     0.1320 ha         1 3EF       0.137000
     54 HAR          9.3020    -0.1170     0.9640 ha         1 3EF       0.137000
     55 HBB          7.9220     0.0590    -0.9710 h1         1 3EF       0.048700
     56 HBBA         7.3800     1.6400    -1.5480 h1         1 3EF       0.048700
     57 HBX          3.2370    -1.1180    -1.9090 h1         1 3EF       0.082700
     58 HNBI         4.0030     0.2240     0.6130 hn         1 3EF       0.332500
     59 HBE          2.8040    -2.1690     0.9240 hc         1 3EF       0.061700
     60 HBEA         2.3000    -2.9600    -0.5600 hc         1 3EF       0.061700
     61 HAS          5.1760    -2.1840     1.5960 ha         1 3EF       0.132500
     62 HAM          7.4120    -3.1850     1.3400 ha         1 3EF       0.111500
     63 HAI          7.9250    -4.5940    -0.6300 ha         1 3EF       0.106000
     64 HAN          6.1790    -4.9840    -2.3430 ha         1 3EF       0.111500
     65 HAT          3.9540    -3.9580    -2.0960 ha         1 3EF       0.132500
     66 HAP         -5.2830     4.8910     2.6240 ha         1 3EF       0.118000
     67 HAU         -6.7490     3.4740    -1.8750 ha         1 3EF       0.149000
     68 HAV         -3.8050     3.5060     1.2460 ha         1 3EF       0.149000
     69 HBAA        -2.6180     1.9080     0.1420 ha         1 3EF       0.173000
     70 HBC         -1.7200    -0.2410    -3.1230 hc         1 3EF       0.102200
     71 HBCA        -0.6660     0.9470    -2.3710 hc         1 3EF       0.102200
     72 HBV         -1.2920    -0.1000    -0.1010 hc         1 3EF       0.060700
     73 HN          -3.5460    -0.4890    -0.1150 hn         1 3EF       0.293500
     74 HA          -4.4660    -3.2080    -0.1270 h1         1 3EF       0.047700
     75 HB          -6.0760    -0.6500    -0.4990 hc         1 3EF       0.056200
     76 HBA         -6.6580    -2.2150     0.0370 hc         1 3EF       0.056200
     77 HD1         -5.4560    -3.1380     2.2720 ha         1 3EF       0.136500
     78 HD2         -5.5380     0.9760     1.1080 ha         1 3EF       0.136500
     79 HE1         -4.9630    -2.4750     4.5810 ha         1 3EF       0.121500
     80 HE2         -5.0340     1.6480     3.4030 ha         1 3EF       0.121500
     81 HOH         -4.6190     0.8920     5.5460 ho         1 3EF       0.411000
     82 HAJ         -7.4980     5.5890     1.7660 ha         1 3EF       0.112000
     83 CBF          0.1830    -1.2190    -1.1710 c3         1 3EF      -0.270600
     84 OAC         -2.0740    -2.8550    -1.5360 o          1 3EF      -0.617100
     85 HAO         -8.2190     4.8760    -0.4910 ha         1 3EF       0.118000
     86 HBF          0.3770    -1.5530    -2.1940 hc         1 3EF       0.059200
     87 HBFA         0.2650    -2.1000    -0.5320 hc         1 3EF       0.059200
@<TRIPOS>BOND
     1     1     9 2   
     2     2     3 ar  
     3     2     4 ar  
     4     2    50 1   
     5     3     5 ar  
     6     3    51 1   
     7     4     6 ar  
     8     4    52 1   
     9     5    10 ar  
    10     5    53 1   
    11     6    10 ar  
    12     6    54 1   
    13     7     8 1   
    14     7    10 1   
    15     7    55 1   
    16     7    56 1   
    17     8     9 1   
    18     9    15 1   
    19    11    12 1   
    20    12    13 1   
    21    12    14 1   
    22    12    83 1   
    23    14    15 1   
    24    14    16 1   
    25    14    57 1   
    26    15    58 1   
    27    16    17 1   
    28    16    59 1   
    29    16    60 1   
    30    17    18 ar  
    31    17    22 ar  
    32    18    19 ar  
    33    18    61 1   
    34    19    20 ar  
    35    19    62 1   
    36    20    21 ar  
    37    20    63 1   
    38    21    22 ar  
    39    21    64 1   
    40    22    65 1   
    41    23    24 ar  
    42    23    25 ar  
    43    23    82 1   
    44    24    26 ar  
    45    24    85 1   
    46    25    27 ar  
    47    25    66 1   
    48    26    34 ar  
    49    26    67 1   
    50    27    34 ar  
    51    27    68 1   
    52    28    33 2   
    53    28    35 1   
    54    28    69 1   
    55    29    33 1   
    56    29    36 1   
    57    29    70 1   
    58    29    71 1   
    59    30    31 1   
    60    30    35 2   
    61    31    33 1   
    62    32    36 1   
    63    32    37 1   
    64    32    84 2   
    65    34    35 1   
    66    36    72 1   
    67    36    83 1   
    68    37    38 1   
    69    37    73 1   
    70    38    39 1   
    71    38    41 1   
    72    38    74 1   
    73    39    40 1   
    74    39    49 1   
    75    41    42 1   
    76    41    75 1   
    77    41    76 1   
    78    42    43 ar  
    79    42    44 ar  
    80    43    45 ar  
    81    43    77 1   
    82    44    46 ar  
    83    44    78 1   
    84    45    47 ar  
    85    45    79 1   
    86    46    47 ar  
    87    46    80 1   
    88    47    48 1   
    89    48    81 1   
    90    83    86 1   
    91    83    87 1   
@<TRIPOS>SUBSTRUCTURE
     1 3EF         1 TEMP              0 ****  ****    0 ROOT
