@<TRIPOS>MOLECULE
3EF
   87    91     1     0     0
SMALL
No Charge or Current Charge


@<TRIPOS>ATOM
      1 OAB          4.8600    -0.7040    -1.2040 o          1 3EF      -0.564000
      2 CAH          9.8330     3.3290     1.7200 ca         1 3EF      -0.115000
      3 CAK          9.0020     3.8460     0.7120 ca         1 3EF      -0.122500
      4 CAL          9.7680     1.9660     2.0530 ca         1 3EF      -0.122500
      5 CAQ          8.1060     2.9990     0.0350 ca         1 3EF      -0.085500
      6 CAR          8.8720     1.1180     1.3760 ca         1 3EF      -0.085500
      7 CBB          7.0670     0.7130    -0.3720 c3         1 3EF       0.229900
      8 OBJ          5.7960     0.7650     0.2960 os         1 3EF      -0.468100
      9 CBM          4.7890     0.0050    -0.2120 c          1 3EF       0.632100
     10 CBP          8.0380     1.6300     0.3620 ca         1 3EF      -0.078300
     11 OAD          0.4990     1.2550     1.4670 o          1 3EF      -0.813000
     12 PBY          0.9090     0.6860     0.1440 p5         1 3EF       1.380000
     13 OAG          1.2460     1.7470    -0.8560 o          1 3EF      -0.813000
     14 CBX          2.3560    -0.4900     0.3550 c3         1 3EF      -0.209300
     15 NBI          3.6700     0.1880     0.5590 ns         1 3EF      -0.443900
     16 CBE          2.1270    -1.5820     1.4340 c3         1 3EF      -0.046100
     17 CBQ          3.2830    -2.5700     1.5370 ca         1 3EF      -0.044300
     18 CAS          4.2480    -2.4400     2.5560 ca         1 3EF      -0.103000
     19 CAM          5.3190    -3.3470     2.6390 ca         1 3EF      -0.118000
     20 CAI          5.4310    -4.3900     1.7050 ca         1 3EF      -0.136000
     21 CAN          4.4720    -4.5270     0.6870 ca         1 3EF      -0.118000
     22 CAT          3.4020    -3.6180     0.6030 ca         1 3EF      -0.103000
     23 CAJ         -7.4570     6.5590    -1.9700 ca         1 3EF      -0.123000
     24 CAO         -7.8890     5.4650    -2.7350 ca         1 3EF      -0.126500
     25 CAP         -6.1850     6.5350    -1.3810 ca         1 3EF      -0.126500
     26 CAU         -7.0510     4.3490    -2.9100 ca         1 3EF      -0.086500
     27 CAV         -5.3440     5.4210    -1.5530 ca         1 3EF      -0.086500
     28 CBA         -3.5960     2.9880    -1.9670 cc         1 3EF      -0.290000
     29 CBC         -1.8560     1.0720    -2.1400 c3         1 3EF      -0.140700
     30 NBG         -5.2540     2.0790    -3.2290 nd         1 3EF      -0.382300
     31 OBK         -4.1250     1.1860    -3.1540 os         1 3EF      -0.026700
     32 CBN         -2.9860    -0.7440    -0.7310 c          1 3EF       0.602100
     33 CBS         -3.1610     1.7780    -2.3860 cd         1 3EF       0.249300
     34 CBT         -5.7640     4.3080    -2.3210 ca         1 3EF      -0.101500
     35 CBU         -4.8910     3.1340    -2.5080 cc         1 3EF       0.301500
     36 CBV         -1.8330     0.2940    -0.7950 c3         1 3EF      -0.095700
     37 N           -3.8920    -0.5410     0.2890 ns         1 3EF      -0.475900
     38 CA          -4.9970    -1.4630     0.6540 c3         1 3EF      -0.025300
     39 C           -6.3180    -0.6740     0.9170 c          1 3EF       0.719000
     40 O           -6.2870     0.2860     1.6770 o          1 3EF      -0.725500
     41 CB          -4.6180    -2.3450     1.8710 c3         1 3EF      -0.041100
     42 CG          -3.3080    -3.1120     1.7000 ca         1 3EF      -0.077300
     43 CD1         -3.1980    -4.1220     0.7240 ca         1 3EF      -0.076000
     44 CD2         -2.2010    -2.8280     2.5260 ca         1 3EF      -0.076000
     45 CE1         -1.9950    -4.8360     0.5740 ca         1 3EF      -0.177000
     46 CE2         -1.0010    -3.5460     2.3780 ca         1 3EF      -0.177000
     47 CZ          -0.8990    -4.5480     1.4000 ca         1 3EF       0.106100
     48 OH           0.2590    -5.2490     1.2550 oh         1 3EF      -0.552100
     49 OXT         -7.3230    -1.0090     0.3030 o          1 3EF      -0.725500
     50 HAH         10.5260     3.9850     2.2440 ha         1 3EF       0.099000
     51 HAK          9.0500     4.9030     0.4560 ha         1 3EF       0.103500
     52 HAL         10.4100     1.5650     2.8350 ha         1 3EF       0.103500
     53 HAQ          7.4630     3.4070    -0.7430 ha         1 3EF       0.119000
     54 HAR          8.8250     0.0630     1.6410 ha         1 3EF       0.119000
     55 HBB          7.4620    -0.3120    -0.3770 h1         1 3EF       0.048700
     56 HBBA         6.9710     1.0440    -1.4160 h1         1 3EF       0.048700
     57 HBX          2.3790    -0.9860    -0.6220 h1         1 3EF       0.082700
     58 HNBI         3.7840     0.8290     1.3360 hn         1 3EF       0.332500
     59 HBE          1.9540    -1.0990     2.4050 hc         1 3EF       0.061700
     60 HBEA         1.2080    -2.1320     1.2030 hc         1 3EF       0.061700
     61 HAS          4.1720    -1.6320     3.2800 ha         1 3EF       0.114500
     62 HAM          6.0630    -3.2390     3.4250 ha         1 3EF       0.093500
     63 HAI          6.2610    -5.0910     1.7680 ha         1 3EF       0.088000
     64 HAN          4.5580    -5.3330    -0.0370 ha         1 3EF       0.093500
     65 HAT          2.6660    -3.7250    -0.1910 ha         1 3EF       0.114500
     66 HAP         -5.8460     7.3830    -0.7880 ha         1 3EF       0.100000
     67 HAU         -7.4130     3.5150    -3.5080 ha         1 3EF       0.131000
     68 HAV         -4.3650     5.4380    -1.0830 ha         1 3EF       0.131000
     69 HBAA        -3.0570     3.6930    -1.3480 ha         1 3EF       0.155000
     70 HBC         -1.6540     0.3780    -2.9650 hc         1 3EF       0.102200
     71 HBCA        -1.0480     1.8110    -2.1580 hc         1 3EF       0.102200
     72 HBV         -2.0080     1.0200     0.0100 hc         1 3EF       0.060700
     73 HN          -3.7410     0.2690     0.8770 hn         1 3EF       0.293500
     74 HA          -5.1890    -2.1250    -0.2000 h1         1 3EF       0.047700
     75 HB          -4.5660    -1.7090     2.7640 hc         1 3EF       0.056200
     76 HBA         -5.4360    -3.0530     2.0580 hc         1 3EF       0.056200
     77 HD1         -4.0440    -4.3520     0.0790 ha         1 3EF       0.118500
     78 HD2         -2.2700    -2.0520     3.2860 ha         1 3EF       0.118500
     79 HE1         -1.9180    -5.6120    -0.1830 ha         1 3EF       0.103500
     80 HE2         -0.1570    -3.3190     3.0260 ha         1 3EF       0.103500
     81 HOH          0.9080    -4.9130     1.9080 ho         1 3EF       0.450000
     82 HAJ         -8.1050     7.4220    -1.8350 ha         1 3EF       0.094000
     83 CBF         -0.4490    -0.3780    -0.5120 c3         1 3EF      -0.428400
     84 OAC         -3.0870    -1.6690    -1.5280 o          1 3EF      -0.617100
     85 HAO         -8.8750     5.4800    -3.1940 ha         1 3EF       0.100000
     86 HBF         -0.0750    -0.8870    -1.4060 hc         1 3EF       0.059200
     87 HBFA        -0.5910    -1.1430     0.2580 hc         1 3EF       0.059200
@<TRIPOS>BOND
     1     1     9 2   
     2     2     3 ar  
     3     2     4 ar  
     4     2    50 1   
     5     3     5 ar  
     6     3    51 1   
     7     4     6 ar  
     8     4    52 1   
     9     5    10 ar  
    10     5    53 1   
    11     6    10 ar  
    12     6    54 1   
    13     7     8 1   
    14     7    10 1   
    15     7    55 1   
    16     7    56 1   
    17     8     9 1   
    18     9    15 1   
    19    11    12 1   
    20    12    13 1   
    21    12    14 1   
    22    12    83 1   
    23    14    15 1   
    24    14    16 1   
    25    14    57 1   
    26    15    58 1   
    27    16    17 1   
    28    16    59 1   
    29    16    60 1   
    30    17    18 ar  
    31    17    22 ar  
    32    18    19 ar  
    33    18    61 1   
    34    19    20 ar  
    35    19    62 1   
    36    20    21 ar  
    37    20    63 1   
    38    21    22 ar  
    39    21    64 1   
    40    22    65 1   
    41    23    24 ar  
    42    23    25 ar  
    43    23    82 1   
    44    24    26 ar  
    45    24    85 1   
    46    25    27 ar  
    47    25    66 1   
    48    26    34 ar  
    49    26    67 1   
    50    27    34 ar  
    51    27    68 1   
    52    28    33 2   
    53    28    35 1   
    54    28    69 1   
    55    29    33 1   
    56    29    36 1   
    57    29    70 1   
    58    29    71 1   
    59    30    31 1   
    60    30    35 2   
    61    31    33 1   
    62    32    36 1   
    63    32    37 1   
    64    32    84 2   
    65    34    35 1   
    66    36    72 1   
    67    36    83 1   
    68    37    38 1   
    69    37    73 1   
    70    38    39 1   
    71    38    41 1   
    72    38    74 1   
    73    39    40 1   
    74    39    49 1   
    75    41    42 1   
    76    41    75 1   
    77    41    76 1   
    78    42    43 ar  
    79    42    44 ar  
    80    43    45 ar  
    81    43    77 1   
    82    44    46 ar  
    83    44    78 1   
    84    45    47 ar  
    85    45    79 1   
    86    46    47 ar  
    87    46    80 1   
    88    47    48 1   
    89    48    81 1   
    90    83    86 1   
    91    83    87 1   
@<TRIPOS>SUBSTRUCTURE
     1 3EF         1 TEMP              0 ****  ****    0 ROOT
