@<TRIPOS>MOLECULE
3EG
   15    14     1     0     0
SMALL
bcc


@<TRIPOS>ATOM
      1 C           -5.8040    -2.9460   -16.5870 c          1 3EG       0.931600
      2 N           -5.5870    -4.2030   -18.7170 n8         1 3EG      -0.902800
      3 O           -5.3210    -2.6670   -15.4750 o          1 3EG      -0.826300
      4 CA          -5.1770    -4.1720   -17.3240 c3         1 3EG       0.015500
      5 CB          -3.6550    -4.1320   -17.1820 c3         1 3EG      -0.114400
      6 FAC         -3.0850    -5.6850   -18.9040 f          1 3EG      -0.260633
      7 FAD         -1.6040    -5.2660   -17.4060 f          1 3EG      -0.260633
      8 FAE         -3.3240    -6.4650   -16.9150 f          1 3EG      -0.260633
      9 CG          -2.9320    -5.3780   -17.6050 c3         1 3EG       0.643900
     10 OXT         -6.7560    -2.3820   -17.1570 o          1 3EG      -0.826300
     11 H           -5.7500    -5.1510   -19.0250 hn         1 3EG       0.339300
     12 H2          -6.4720    -3.7130   -18.7750 hn         1 3EG       0.339300
     13 HA          -5.5460    -5.0480   -16.7670 h1         1 3EG       0.014700
     14 HB          -3.2600    -3.2980   -17.7690 hc         1 3EG       0.084200
     15 HBA         -3.3960    -3.9490   -16.1390 hc         1 3EG       0.084200
@<TRIPOS>BOND
     1     1     3 1   
     2     1     4 1   
     3     1    10 1   
     4     2     4 1   
     5     2    11 1   
     6     2    12 1   
     7     4     5 1   
     8     4    13 1   
     9     5     9 1   
    10     5    14 1   
    11     5    15 1   
    12     6     9 1   
    13     7     9 1   
    14     8     9 1   
@<TRIPOS>SUBSTRUCTURE
     1 3EG         1 TEMP              0 ****  ****    0 ROOT
