@<TRIPOS>MOLECULE
3EH
   70    72     1     0     0
SMALL
No Charge or Current Charge


@<TRIPOS>ATOM
      1 C1           5.5780    -0.0540    -0.6140 ca         1 3EH      -0.127900
      2 C2           6.0450     1.0020    -1.4270 ca         1 3EH      -0.084000
      3 C3           6.4140    -0.5300     0.4240 ca         1 3EH      -0.137000
      4 C4           7.3250     1.5450    -1.2360 ca         1 3EH      -0.183000
      5 C5           7.7060     0.0110     0.6240 ca         1 3EH       0.106100
      6 C6           8.1660     1.0530    -0.2140 ca         1 3EH       0.133100
      7 C7           1.6350    -2.2150    -0.9430 c          1 3EH       0.583600
      8 N10          3.6090    -1.2490     0.1650 n2         1 3EH      -0.455300
      9 C11          3.5820    -0.5940    -2.2000 c6         1 3EH      -0.032700
     10 C12          4.1900    -0.6040    -0.8010 ce         1 3EH       0.428900
     11 C15         -1.6650     0.9030     0.8970 ca         1 3EH      -0.006000
     12 C16          0.2810     2.3340     1.2650 ca         1 3EH      -0.090000
     13 C17         -0.8330    -0.2260     1.0160 ca         1 3EH      -0.146000
     14 C18          1.1010     1.2000     1.3810 ca         1 3EH      -0.120000
     15 C19          0.5470    -0.0870     1.2600 ca         1 3EH      -0.086300
     16 C24          8.1660    -1.5020     2.5330 c3         1 3EH       0.143900
     17 O28         -5.2480     0.8120     0.2700 os         1 3EH      -0.463100
     18 C30         -7.5890     0.4810    -0.1470 c3         1 3EH      -0.088400
     19 C31         -8.9720     1.1320    -0.3790 c3         1 3EH       0.173800
     20 C33        -11.4450     0.9020    -0.3850 c3         1 3EH       0.171300
     21 C34        -11.7010     1.8360     0.8180 c3         1 3EH      -0.089600
     22 C35        -10.0360    -0.8480    -1.4420 c3         1 3EH       0.171300
     23 C36        -11.0900    -1.9730    -1.3660 c3         1 3EH      -0.089600
     24 O27         -4.0720     2.7680     0.5270 o          1 3EH      -0.526000
     25 C26         -4.1130     1.5450     0.4870 c          1 3EH       0.650100
     26 C29         -6.4810     1.5250     0.0740 c3         1 3EH       0.184600
     27 N32        -10.1320     0.1920    -0.3750 n3         1 3EH      -0.729600
     28 C14         -1.0960     2.1890     1.0250 ca         1 3EH      -0.129000
     29 N8           2.2510    -1.5460     0.1590 n          1 3EH      -0.177800
     30 S9           2.5550    -2.1060    -2.5160 ss         1 3EH      -0.291600
     31 O21          0.5700    -2.8120    -0.8610 o          1 3EH      -0.497000
     32 O22          8.5440    -0.4500     1.6280 os         1 3EH      -0.321100
     33 O23          9.4350     1.5670    -0.0000 os         1 3EH      -0.316100
     34 C25          9.9840     2.6270    -0.8030 c3         1 3EH       0.143900
     35 H1           5.4140     1.4180    -2.2090 ha         1 3EH       0.113000
     36 H2           6.0520    -1.3280     1.0650 ha         1 3EH       0.139000
     37 H3           7.6440     2.3530    -1.8880 ha         1 3EH       0.123000
     38 H4           2.9270     0.2830    -2.2930 h1         1 3EH       0.096700
     39 H5           4.3620    -0.5320    -2.9690 h1         1 3EH       0.096700
     40 H6           0.7140     3.3270     1.3600 ha         1 3EH       0.116000
     41 H7          -1.2610    -1.2220     0.9150 ha         1 3EH       0.123000
     42 H8           2.1670     1.3220     1.5630 ha         1 3EH       0.121000
     43 H9           8.9790    -1.7030     3.2420 h1         1 3EH       0.042367
     44 H10          7.2750    -1.2200     3.1090 h1         1 3EH       0.042367
     45 H11          7.9550    -2.4300     1.9870 h1         1 3EH       0.042367
     46 H12         -7.6420    -0.1760     0.7290 hc         1 3EH       0.062200
     47 H13         -7.3130    -0.1360    -1.0090 hc         1 3EH       0.062200
     48 H14         -9.0960     1.8720     0.4200 h1         1 3EH       0.031700
     49 H15         -8.9440     1.6880    -1.3260 h1         1 3EH       0.031700
     50 H16        -12.2630     0.1720    -0.3740 h1         1 3EH       0.028950
     51 H17        -11.5510     1.4850    -1.3100 h1         1 3EH       0.028950
     52 H18        -11.5100     1.3120     1.7620 hc         1 3EH       0.037033
     53 H19        -11.0720     2.7320     0.7740 hc         1 3EH       0.037033
     54 H20        -12.7460     2.1660     0.8170 hc         1 3EH       0.037033
     55 H21         -9.0620    -1.3490    -1.3860 h1         1 3EH       0.028950
     56 H22        -10.0960    -0.3780    -2.4330 h1         1 3EH       0.028950
     57 H23        -11.1250    -2.4040    -0.3580 hc         1 3EH       0.037033
     58 H24        -12.0880    -1.6090    -1.6320 hc         1 3EH       0.037033
     59 H25        -10.8320    -2.7730    -2.0700 hc         1 3EH       0.037033
     60 H26         -6.7220     2.1380     0.9530 h1         1 3EH       0.049200
     61 H27         -6.4160     2.1840    -0.8030 h1         1 3EH       0.049200
     62 H29         -3.3040    -0.2950     0.5810 hn         1 3EH       0.169000
     63 H30         -1.7000     3.0870     0.9400 ha         1 3EH       0.149000
     64 H31          2.1190    -1.1830     2.2280 h1         1 3EH       0.074700
     65 H32          0.8360    -2.2050     1.5880 h1         1 3EH       0.074700
     66 H33         10.0450     2.3270    -1.8570 h1         1 3EH       0.042367
     67 H34          9.3700     3.5330    -0.7270 h1         1 3EH       0.042367
     68 H35         10.9970     2.8750    -0.4620 h1         1 3EH       0.042367
     69 C13          1.4420    -1.3160     1.3740 c3         1 3EH       0.164300
     70 N20         -3.0470     0.6800     0.6510 ns         1 3EH      -0.140000
@<TRIPOS>BOND
     1     1     2 ar  
     2     1     3 ar  
     3     1    10 1   
     4     2     4 ar  
     5     2    35 1   
     6     3     5 ar  
     7     3    36 1   
     8     4     6 ar  
     9     4    37 1   
    10     5     6 ar  
    11     5    32 1   
    12     6    33 1   
    13     7    29 1   
    14     7    30 1   
    15     7    31 2   
    16     8    10 2   
    17     8    29 1   
    18     9    10 1   
    19     9    30 1   
    20     9    38 1   
    21     9    39 1   
    22    11    13 ar  
    23    11    28 ar  
    24    11    70 1   
    25    12    14 ar  
    26    12    28 ar  
    27    12    40 1   
    28    13    15 ar  
    29    13    41 1   
    30    14    15 ar  
    31    14    42 1   
    32    15    69 1   
    33    16    32 1   
    34    16    43 1   
    35    16    44 1   
    36    16    45 1   
    37    17    25 1   
    38    17    26 1   
    39    18    19 1   
    40    18    26 1   
    41    18    46 1   
    42    18    47 1   
    43    19    27 1   
    44    19    48 1   
    45    19    49 1   
    46    20    21 1   
    47    20    27 1   
    48    20    50 1   
    49    20    51 1   
    50    21    52 1   
    51    21    53 1   
    52    21    54 1   
    53    22    23 1   
    54    22    27 1   
    55    22    55 1   
    56    22    56 1   
    57    23    57 1   
    58    23    58 1   
    59    23    59 1   
    60    24    25 2   
    61    25    70 1   
    62    26    60 1   
    63    26    61 1   
    64    28    63 1   
    65    29    69 1   
    66    33    34 1   
    67    34    66 1   
    68    34    67 1   
    69    34    68 1   
    70    62    70 1   
    71    64    69 1   
    72    65    69 1   
@<TRIPOS>SUBSTRUCTURE
     1 3EH         1 TEMP              0 ****  ****    0 ROOT
