@<TRIPOS>MOLECULE
3EH
   70    72     1     0     0
SMALL
abcg2


@<TRIPOS>ATOM
      1 C1           5.4080    -0.1530    -0.7770 ca         1 3EH      -0.127900
      2 C2           6.1030     0.3930    -1.8440 ca         1 3EH      -0.084000
      3 C3           5.9910    -0.1010     0.5010 ca         1 3EH      -0.137000
      4 C4           7.3480     0.9890    -1.6550 ca         1 3EH      -0.183000
      5 C5           7.2230     0.4820     0.7000 ca         1 3EH       0.106100
      6 C6           7.9200     1.0430    -0.3970 ca         1 3EH       0.133100
      7 C7           1.6950    -2.4140    -0.9280 c          1 3EH       0.583600
      8 N10          3.4460    -1.0820     0.1160 n2         1 3EH      -0.455300
      9 C11          3.4570    -0.8930    -2.3010 c6         1 3EH      -0.032700
     10 C12          4.0730    -0.7470    -0.9440 ce         1 3EH       0.428900
     11 C15         -1.6100     0.6630     0.9900 ca         1 3EH      -0.006000
     12 C16          0.2730     2.0450     1.5540 ca         1 3EH      -0.090000
     13 C17         -0.7660    -0.4510     1.0320 ca         1 3EH      -0.146000
     14 C18          1.1060     0.9400     1.5980 ca         1 3EH      -0.120000
     15 C19          0.5800    -0.3220     1.3330 ca         1 3EH      -0.086300
     16 C24          7.2160     0.0160     3.0190 c3         1 3EH       0.143900
     17 O28         -5.0930     0.6540     0.2710 os         1 3EH      -0.463100
     18 C30         -7.4400     0.4890    -0.0970 c3         1 3EH      -0.088400
     19 C31         -8.7410     1.2660    -0.2640 c3         1 3EH       0.173800
     20 C33        -11.1220     0.9780    -0.0230 c3         1 3EH       0.171300
     21 C34        -11.2740     0.8800     1.4870 c3         1 3EH      -0.089600
     22 C35         -9.9610    -0.0050    -1.9020 c3         1 3EH       0.171300
     23 C36        -10.7570    -1.2830    -2.1120 c3         1 3EH      -0.089600
     24 O27         -3.8730     2.5100     0.6210 o          1 3EH      -0.526000
     25 C26         -3.9620     1.3070     0.5350 c          1 3EH       0.650100
     26 C29         -6.2750     1.4390     0.0810 c3         1 3EH       0.184600
     27 N32         -9.8780     0.3940    -0.5040 n3         1 3EH      -0.729600
     28 C14         -1.0780     1.9250     1.2540 ca         1 3EH      -0.129000
     29 N8           2.2040    -1.6390     0.0680 n          1 3EH      -0.177800
     30 S9           2.6430    -2.5030    -2.4160 ss         1 3EH      -0.291600
     31 O21          0.6760    -3.0620    -0.8190 o          1 3EH      -0.497000
     32 O22          7.8500     0.5730     1.8850 os         1 3EH      -0.321100
     33 O23          9.1080     1.5910    -0.1090 os         1 3EH      -0.316100
     34 C25          9.8360     2.1990    -1.1590 c3         1 3EH       0.143900
     35 H1           5.7040     0.3820    -2.8480 ha         1 3EH       0.113000
     36 H2           5.4490    -0.5310     1.3310 ha         1 3EH       0.139000
     37 H3           7.8560     1.4070    -2.5130 ha         1 3EH       0.123000
     38 H4           2.7290    -0.0970    -2.4730 h1         1 3EH       0.096700
     39 H5           4.1800    -0.8650    -3.1100 h1         1 3EH       0.096700
     40 H6           0.6740     3.0280     1.7630 ha         1 3EH       0.116000
     41 H7          -1.1710    -1.4350     0.8220 ha         1 3EH       0.123000
     42 H8           2.1560     1.0550     1.8380 ha         1 3EH       0.121000
     43 H9           7.8770     0.2010     3.8630 h1         1 3EH       0.042367
     44 H10          6.2500     0.4860     3.2200 h1         1 3EH       0.042367
     45 H11          7.0680    -1.0620     2.9160 h1         1 3EH       0.042367
     46 H12         -7.5290    -0.1650     0.7740 hc         1 3EH       0.062200
     47 H13         -7.2610    -0.1500    -0.9650 hc         1 3EH       0.062200
     48 H14         -8.9170     1.8330     0.6530 h1         1 3EH       0.031700
     49 H15         -8.6340     2.0180    -1.0650 h1         1 3EH       0.031700
     50 H16        -11.9560     0.4430    -0.4810 h1         1 3EH       0.028950
     51 H17        -11.2270     2.0270    -0.3450 h1         1 3EH       0.028950
     52 H18        -11.2460    -0.1620     1.8080 hc         1 3EH       0.037033
     53 H19        -10.4890     1.4160     2.0220 hc         1 3EH       0.037033
     54 H20        -12.2280     1.3060     1.8000 hc         1 3EH       0.037033
     55 H21         -8.9480    -0.1760    -2.2710 h1         1 3EH       0.028950
     56 H22        -10.3750     0.8050    -2.5260 h1         1 3EH       0.028950
     57 H23        -10.3180    -2.1060    -1.5470 hc         1 3EH       0.037033
     58 H24        -11.7990    -1.1840    -1.8070 hc         1 3EH       0.037033
     59 H25        -10.7540    -1.5580    -3.1680 hc         1 3EH       0.037033
     60 H26         -6.4350     2.0870     0.9460 h1         1 3EH       0.049200
     61 H27         -6.1590     2.0780    -0.7980 h1         1 3EH       0.049200
     62 H29         -3.1930    -0.5580     0.5640 hn         1 3EH       0.169000
     63 H30         -1.6960     2.8070     1.2320 ha         1 3EH       0.149000
     64 H31          2.2260    -1.4590     2.1150 h1         1 3EH       0.074700
     65 H32          0.9030    -2.4420     1.4980 h1         1 3EH       0.074700
     66 H33         10.1060     1.4800    -1.9360 h1         1 3EH       0.042367
     67 H34          9.2780     3.0200    -1.6160 h1         1 3EH       0.042367
     68 H35         10.7450     2.5950    -0.7150 h1         1 3EH       0.042367
     69 C13          1.4750    -1.5320     1.3310 c3         1 3EH       0.164300
     70 N20         -2.9500     0.4130     0.6900 ns         1 3EH      -0.140000
@<TRIPOS>BOND
     1     1     2 ar  
     2     1     3 ar  
     3     1    10 1   
     4     2     4 ar  
     5     2    35 1   
     6     3     5 ar  
     7     3    36 1   
     8     4     6 ar  
     9     4    37 1   
    10     5     6 ar  
    11     5    32 1   
    12     6    33 1   
    13     7    29 1   
    14     7    30 1   
    15     7    31 2   
    16     8    10 2   
    17     8    29 1   
    18     9    10 1   
    19     9    30 1   
    20     9    38 1   
    21     9    39 1   
    22    11    13 ar  
    23    11    28 ar  
    24    11    70 1   
    25    12    14 ar  
    26    12    28 ar  
    27    12    40 1   
    28    13    15 ar  
    29    13    41 1   
    30    14    15 ar  
    31    14    42 1   
    32    15    69 1   
    33    16    32 1   
    34    16    43 1   
    35    16    44 1   
    36    16    45 1   
    37    17    25 1   
    38    17    26 1   
    39    18    19 1   
    40    18    26 1   
    41    18    46 1   
    42    18    47 1   
    43    19    27 1   
    44    19    48 1   
    45    19    49 1   
    46    20    21 1   
    47    20    27 1   
    48    20    50 1   
    49    20    51 1   
    50    21    52 1   
    51    21    53 1   
    52    21    54 1   
    53    22    23 1   
    54    22    27 1   
    55    22    55 1   
    56    22    56 1   
    57    23    57 1   
    58    23    58 1   
    59    23    59 1   
    60    24    25 2   
    61    25    70 1   
    62    26    60 1   
    63    26    61 1   
    64    28    63 1   
    65    29    69 1   
    66    33    34 1   
    67    34    66 1   
    68    34    67 1   
    69    34    68 1   
    70    62    70 1   
    71    64    69 1   
    72    65    69 1   
@<TRIPOS>SUBSTRUCTURE
     1 3EH         1 TEMP              0 ****  ****    0 ROOT
