@<TRIPOS>MOLECULE
3EI
   34    37     1     0     0
SMALL
abcg2


@<TRIPOS>ATOM
      1 C2          79.0850   -55.5390    18.5730 ca         1 3EI       0.114100
      2 C3          78.5190   -54.5880    17.7270 ca         1 3EI      -0.145500
      3 C4          77.8110   -53.5230    18.2500 ca         1 3EI      -0.112500
      4 C5          77.6430   -53.3710    19.6300 ca         1 3EI       0.270000
      5 C7          76.6300   -51.8620    21.3200 cc         1 3EI       0.728300
      6 C12         76.9010   -52.2260    24.8520 cd         1 3EI      -0.237900
      7 C15         77.9480   -53.1740    26.5630 cc         1 3EI      -0.073000
      8 C16         78.9980   -53.8650    27.1990 cc         1 3EI      -0.082000
      9 C17         80.0830   -54.2480    26.4680 cd         1 3EI      -0.098000
     10 C18         80.1490   -53.9480    25.0840 cd         1 3EI      -0.158000
     11 C19         79.1350   -53.2870    24.4720 cc         1 3EI      -0.088000
     12 C21         78.2110   -54.3220    20.4730 ca         1 3EI      -0.112500
     13 O1          79.7650   -56.5620    18.0110 oh         1 3EI      -0.533100
     14 N6          76.9000   -52.2670    20.0600 nu         1 3EI      -0.925900
     15 N8          77.0450   -52.4190    22.4150 nd         1 3EI      -0.742000
     16 C9          76.5880   -51.7450    23.5210 cd         1 3EI       0.423800
     17 C10         75.8190   -50.6540    23.2680 cc         1 3EI      -0.270000
     18 S11         75.6190   -50.4580    21.5670 ss         1 3EI      -0.094400
     19 C13         76.1850   -52.1220    26.0230 cc         1 3EI      -0.006400
     20 N14         76.8210   -52.6960    27.0630 nc         1 3EI      -0.292600
     21 N20         78.0430   -52.9120    25.2040 na         1 3EI       0.152100
     22 C22         78.9240   -55.3910    19.9440 ca         1 3EI      -0.145500
     23 H1          78.6320   -54.6820    16.6540 ha         1 3EI       0.122500
     24 H2          77.3790   -52.7970    17.5720 ha         1 3EI       0.130000
     25 H3          78.9160   -54.0710    28.2570 ha         1 3EI       0.143000
     26 H4          80.9000   -54.7760    26.9400 ha         1 3EI       0.123000
     27 H5          81.0070   -54.2410    24.4970 ha         1 3EI       0.130000
     28 H6          79.1290   -53.0360    23.4240 h4         1 3EI       0.166000
     29 H7          78.1040   -54.2440    21.5430 ha         1 3EI       0.130000
     30 H8          80.1050   -57.1520    18.6930 ho         1 3EI       0.464000
     31 H9          76.5230   -51.6970    19.3190 hn         1 3EI       0.506000
     32 H10         75.3770   -49.9630    23.9680 h4         1 3EI       0.168000
     33 H11         75.2160   -51.6570    26.1350 h4         1 3EI       0.226000
     34 H12         79.3550   -56.1170    20.6250 ha         1 3EI       0.122500
@<TRIPOS>BOND
     1     1     2 ar  
     2     1    13 1   
     3     1    22 ar  
     4     2     3 ar  
     5     2    23 1   
     6     3     4 ar  
     7     3    24 1   
     8     4    12 ar  
     9     4    14 1   
    10     5    14 1   
    11     5    15 2   
    12     5    18 1   
    13     6    16 1   
    14     6    19 2   
    15     6    21 1   
    16     7     8 1   
    17     7    20 2   
    18     7    21 1   
    19     8     9 2   
    20     8    25 1   
    21     9    10 1   
    22     9    26 1   
    23    10    11 2   
    24    10    27 1   
    25    11    21 1   
    26    11    28 1   
    27    12    22 ar  
    28    12    29 1   
    29    13    30 1   
    30    14    31 1   
    31    15    16 1   
    32    16    17 2   
    33    17    18 1   
    34    17    32 1   
    35    19    20 1   
    36    19    33 1   
    37    22    34 1   
@<TRIPOS>SUBSTRUCTURE
     1 3EI         1 TEMP              0 ****  ****    0 ROOT
