@<TRIPOS>MOLECULE
3EI
   34    37     1     0     0
SMALL
No Charge or Current Charge


@<TRIPOS>ATOM
      1 C2          79.3390   -55.2920    18.4920 ca         1 3EI       0.114100
      2 C3          79.0120   -54.1200    17.7940 ca         1 3EI      -0.145500
      3 C4          78.0740   -53.2180    18.3310 ca         1 3EI      -0.112500
      4 C5          77.4650   -53.4760    19.5720 ca         1 3EI       0.270000
      5 C7          76.2620   -52.1020    21.3250 cc         1 3EI       0.728300
      6 C12         77.0890   -52.0890    24.8040 cd         1 3EI      -0.237900
      7 C15         78.2640   -52.7680    26.5600 cc         1 3EI      -0.073000
      8 C16         79.2460   -53.4890    27.2920 cc         1 3EI      -0.082000
      9 C17         80.0610   -54.3550    26.6110 cd         1 3EI      -0.098000
     10 C18         79.8830   -54.4900    25.1880 cd         1 3EI      -0.158000
     11 C19         78.9200   -53.7820    24.4670 cc         1 3EI      -0.088000
     12 C21         77.7890   -54.6620    20.2610 ca         1 3EI      -0.112500
     13 O1          80.2470   -56.1610    17.9640 oh         1 3EI      -0.533100
     14 N6          76.5270   -52.5700    20.0720 nu         1 3EI      -0.925900
     15 N8          76.9800   -52.5120    22.3420 nd         1 3EI      -0.742000
     16 C9          76.5410   -51.8790    23.4890 cd         1 3EI       0.423800
     17 C10         75.5030   -50.9890    23.3230 cc         1 3EI      -0.270000
     18 S11         75.0290   -50.9120    21.6500 ss         1 3EI      -0.094400
     19 C13         76.6720   -51.4730    25.9790 cc         1 3EI      -0.006400
     20 N14         77.3860   -51.8740    27.1050 nc         1 3EI      -0.292600
     21 N20         78.1080   -52.9090    25.2150 na         1 3EI       0.152100
     22 C22         78.7260   -55.5670    19.7260 ca         1 3EI      -0.145500
     23 H1          79.4820   -53.9090    16.8360 ha         1 3EI       0.122500
     24 H2          77.8280   -52.3120    17.7820 ha         1 3EI       0.130000
     25 H3          79.3360   -53.3470    28.3650 ha         1 3EI       0.143000
     26 H4          80.8240   -54.9250    27.1340 ha         1 3EI       0.123000
     27 H5          80.5300   -55.1750    24.6480 ha         1 3EI       0.130000
     28 H6          78.7630   -53.8590    23.4020 h4         1 3EI       0.166000
     29 H7          77.3080   -54.8920    21.2070 ha         1 3EI       0.130000
     30 H8          80.3520   -56.9190    18.5790 ho         1 3EI       0.464000
     31 H9          76.0810   -51.9870    19.3700 hn         1 3EI       0.506000
     32 H10         74.9930   -50.3790    24.0540 h4         1 3EI       0.168000
     33 H11         75.8780   -50.7420    26.1030 h4         1 3EI       0.226000
     34 H12         78.9660   -56.4760    20.2720 ha         1 3EI       0.122500
@<TRIPOS>BOND
     1     1     2 ar  
     2     1    13 1   
     3     1    22 ar  
     4     2     3 ar  
     5     2    23 1   
     6     3     4 ar  
     7     3    24 1   
     8     4    12 ar  
     9     4    14 1   
    10     5    14 1   
    11     5    15 2   
    12     5    18 1   
    13     6    16 1   
    14     6    19 2   
    15     6    21 1   
    16     7     8 1   
    17     7    20 2   
    18     7    21 1   
    19     8     9 2   
    20     8    25 1   
    21     9    10 1   
    22     9    26 1   
    23    10    11 2   
    24    10    27 1   
    25    11    21 1   
    26    11    28 1   
    27    12    22 ar  
    28    12    29 1   
    29    13    30 1   
    30    14    31 1   
    31    15    16 1   
    32    16    17 2   
    33    17    18 1   
    34    17    32 1   
    35    19    20 1   
    36    19    33 1   
    37    22    34 1   
@<TRIPOS>SUBSTRUCTURE
     1 3EI         1 TEMP              0 ****  ****    0 ROOT
