@<TRIPOS>MOLECULE
3EJ
   48    51     1     0     0
SMALL
abcg2


@<TRIPOS>ATOM
      1 C1          -6.6120     0.5130     1.4260 ca         1 3EJ      -0.093500
      2 C2          -7.1920     0.7510     0.1830 ca         1 3EJ      -0.107600
      3 C3          -6.8820    -0.1100    -0.8680 ca         1 3EJ      -0.093500
      4 C4          -6.0170    -1.1770    -0.6830 ca         1 3EJ      -0.109500
      5 C5          -5.4430    -1.4090     0.5640 ca         1 3EJ      -0.174300
      6 C6          -5.7460    -0.5540     1.6170 ca         1 3EJ      -0.109500
      7 C7          -8.1480     1.9220    -0.0230 c          1 3EJ       0.710600
      8 O8          -8.3660     2.6420     0.9690 o          1 3EJ      -0.713000
      9 O9          -8.6270     2.0530    -1.1650 o          1 3EJ      -0.713000
     10 C10         -4.4900    -2.5540     0.7600 c3         1 3EJ       0.148900
     11 N11         -3.1560    -2.2130     0.2840 na         1 3EJ       0.268600
     12 N12         -2.6220    -2.7490    -0.7760 nc         1 3EJ      -0.184800
     13 N13         -1.4650    -2.1960    -0.9250 nd         1 3EJ      -0.383000
     14 C14         -1.3370    -1.3150     0.0800 cd         1 3EJ       0.515500
     15 N15         -2.4050    -1.3140     0.8550 nc         1 3EJ      -0.496800
     16 C16         -0.1700    -0.4650     0.2880 ca         1 3EJ      -0.071500
     17 C17          0.9390    -0.5730    -0.5430 ca         1 3EJ      -0.074000
     18 C18          2.0190     0.2620    -0.3110 ca         1 3EJ       0.270500
     19 N19          2.0480     1.1610     0.6650 nb         1 3EJ      -0.682000
     20 C20          0.9930     1.2600     1.4580 ca         1 3EJ       0.327900
     21 C21         -0.1390     0.4720     1.3130 ca         1 3EJ      -0.114000
     22 C22          3.2320     0.1610    -1.1980 c          1 3EJ       0.511600
     23 N23          4.1910     1.0480    -0.9120 ns         1 3EJ      -0.493900
     24 C24          5.4430     1.1510    -1.6140 c3         1 3EJ       0.144300
     25 C25          6.6410     0.8790    -0.7370 ca         1 3EJ      -0.075300
     26 O26          3.2900    -0.6750    -2.0880 o          1 3EJ      -0.602100
     27 C27          7.8350     1.5550    -0.9720 ca         1 3EJ      -0.126000
     28 C28          8.9590     1.2890    -0.2030 ca         1 3EJ      -0.087000
     29 C29          8.9110     0.3490     0.8170 ca         1 3EJ      -0.155000
     30 C30          7.7150    -0.3070     1.0350 ca         1 3EJ       0.170000
     31 C31          6.5820    -0.0650     0.2840 ca         1 3EJ      -0.133000
     32 F32          7.6480    -1.2200     2.0190 f          1 3EJ      -0.181000
     33 H1          -6.8430     1.1690     2.2550 ha         1 3EJ       0.133500
     34 H3          -7.3260     0.0550    -1.8400 ha         1 3EJ       0.133500
     35 H4          -5.7930    -1.8390    -1.5120 ha         1 3EJ       0.092000
     36 H6          -5.3080    -0.7260     2.5930 ha         1 3EJ       0.092000
     37 H10         -4.4040    -2.8300     1.8090 h1         1 3EJ       0.070200
     38 H10A        -4.7940    -3.4360     0.1990 h1         1 3EJ       0.070200
     39 H17          0.9660    -1.2880    -1.3530 ha         1 3EJ       0.167000
     40 H20          1.0420     1.9990     2.2480 h4         1 3EJ       0.022100
     41 H21         -0.9740     0.6000     1.9890 ha         1 3EJ       0.149000
     42 HN23         4.0100     1.6900    -0.1540 hn         1 3EJ       0.344500
     43 H24          5.4300     0.4450    -2.4450 h1         1 3EJ       0.066200
     44 H24A         5.5340     2.1480    -2.0520 h1         1 3EJ       0.066200
     45 H27          7.8860     2.2980    -1.7580 ha         1 3EJ       0.115000
     46 H28          9.8800     1.8230    -0.3910 ha         1 3EJ       0.113000
     47 H29          9.7770     0.1370     1.4300 ha         1 3EJ       0.128000
     48 H31          5.6680    -0.6030     0.5000 ha         1 3EJ       0.143000
@<TRIPOS>BOND
     1     1     2 ar  
     2     1     6 ar  
     3     1    33 1   
     4     2     3 ar  
     5     2     7 1   
     6     3     4 ar  
     7     3    34 1   
     8     4     5 ar  
     9     4    35 1   
    10     5     6 ar  
    11     5    10 1   
    12     6    36 1   
    13     7     8 1   
    14     7     9 1   
    15    10    11 1   
    16    10    37 1   
    17    10    38 1   
    18    11    12 1   
    19    11    15 1   
    20    12    13 2   
    21    13    14 1   
    22    14    15 2   
    23    14    16 1   
    24    16    17 ar  
    25    16    21 ar  
    26    17    18 ar  
    27    17    39 1   
    28    18    19 ar  
    29    18    22 1   
    30    19    20 ar  
    31    20    21 ar  
    32    20    40 1   
    33    21    41 1   
    34    22    23 1   
    35    22    26 2   
    36    23    24 1   
    37    23    42 1   
    38    24    25 1   
    39    24    43 1   
    40    24    44 1   
    41    25    27 ar  
    42    25    31 ar  
    43    27    28 ar  
    44    27    45 1   
    45    28    29 ar  
    46    28    46 1   
    47    29    30 ar  
    48    29    47 1   
    49    30    31 ar  
    50    30    32 1   
    51    31    48 1   
@<TRIPOS>SUBSTRUCTURE
     1 3EJ         1 TEMP              0 ****  ****    0 ROOT
