@<TRIPOS>MOLECULE
3EJ
   48    51     1     0     0
SMALL
No Charge or Current Charge


@<TRIPOS>ATOM
      1 C1          -7.4060     0.4460     1.4470 ca         1 3EJ      -0.093500
      2 C2          -7.4160     1.2240     0.2660 ca         1 3EJ      -0.107600
      3 C3          -6.5720     0.8330    -0.8000 ca         1 3EJ      -0.093500
      4 C4          -5.7440    -0.2970    -0.6860 ca         1 3EJ      -0.109500
      5 C5          -5.7370    -1.0620     0.4960 ca         1 3EJ      -0.174300
      6 C6          -6.5770    -0.6840     1.5590 ca         1 3EJ      -0.109500
      7 C7          -8.3130     2.4470     0.1430 c          1 3EJ       0.710600
      8 O8          -9.0270     2.7480     1.0910 o          1 3EJ      -0.713000
      9 O9          -8.2910     3.0890    -0.8980 o          1 3EJ      -0.713000
     10 C10         -4.8420    -2.3000     0.6290 c3         1 3EJ       0.148900
     11 N11         -3.4550    -2.1110     0.1620 na         1 3EJ       0.268600
     12 N12         -2.9980    -2.6180    -1.0170 nc         1 3EJ      -0.184800
     13 N13         -1.7500    -2.2530    -1.0740 nd         1 3EJ      -0.383000
     14 C14         -1.4790    -1.5360     0.0730 cd         1 3EJ       0.515500
     15 N15         -2.5200    -1.4310     0.8740 nc         1 3EJ      -0.496800
     16 C16         -0.1550    -0.9490     0.3760 ca         1 3EJ      -0.071500
     17 C17          0.9340    -1.0930    -0.5120 ca         1 3EJ      -0.074000
     18 C18          2.1880    -0.5240    -0.1990 ca         1 3EJ       0.270500
     19 N19          2.3850     0.1770     0.9600 nb         1 3EJ      -0.682000
     20 C20          1.3450     0.3180     1.8120 ca         1 3EJ       0.327900
     21 C21          0.0740    -0.2220     1.5640 ca         1 3EJ      -0.114000
     22 C22          3.3590    -0.6910    -1.1760 c          1 3EJ       0.511600
     23 N23          4.5440    -0.1010    -0.7870 ns         1 3EJ      -0.493900
     24 C24          5.7850    -0.1310    -1.5560 c3         1 3EJ       0.144300
     25 C25          6.9040     0.5910    -0.8210 ca         1 3EJ      -0.075300
     26 O26          3.2750    -1.3030    -2.2360 o          1 3EJ      -0.602100
     27 C27          7.1370     1.9630    -1.0480 ca         1 3EJ      -0.126000
     28 C28          8.1680     2.6330    -0.3660 ca         1 3EJ      -0.087000
     29 C29          8.9720     1.9340     0.5510 ca         1 3EJ      -0.155000
     30 C30          8.7410     0.5690     0.7820 ca         1 3EJ       0.170000
     31 C31          7.7120    -0.1030     0.1010 ca         1 3EJ      -0.133000
     32 F32          9.5120    -0.1030     1.6640 f          1 3EJ      -0.181000
     33 H1          -8.0440     0.7160     2.2870 ha         1 3EJ       0.133500
     34 H3          -6.5570     1.4050    -1.7250 ha         1 3EJ       0.133500
     35 H4          -5.1110    -0.5760    -1.5250 ha         1 3EJ       0.092000
     36 H6          -6.5910    -1.2640     2.4790 ha         1 3EJ       0.092000
     37 H10         -4.8010    -2.6150     1.6790 h1         1 3EJ       0.070200
     38 H10A        -5.2890    -3.1240     0.0600 h1         1 3EJ       0.070200
     39 H17          0.8170    -1.6430    -1.4420 ha         1 3EJ       0.167000
     40 H20          1.5390     0.8820     2.7240 h4         1 3EJ       0.022100
     41 H21         -0.7160    -0.0700     2.2940 ha         1 3EJ       0.149000
     42 HN23         4.5250     0.3860     0.1040 hn         1 3EJ       0.344500
     43 H24          6.0720    -1.1760    -1.7350 h1         1 3EJ       0.066200
     44 H24A         5.6130     0.3440    -2.5320 h1         1 3EJ       0.066200
     45 H27          6.5170     2.5110    -1.7550 ha         1 3EJ       0.115000
     46 H28          8.3420     3.6920    -0.5460 ha         1 3EJ       0.113000
     47 H29          9.7700     2.4460     1.0820 ha         1 3EJ       0.128000
     48 H31          7.5450    -1.1600     0.2940 ha         1 3EJ       0.143000
@<TRIPOS>BOND
     1     1     2 ar  
     2     1     6 ar  
     3     1    33 1   
     4     2     3 ar  
     5     2     7 1   
     6     3     4 ar  
     7     3    34 1   
     8     4     5 ar  
     9     4    35 1   
    10     5     6 ar  
    11     5    10 1   
    12     6    36 1   
    13     7     8 1   
    14     7     9 1   
    15    10    11 1   
    16    10    37 1   
    17    10    38 1   
    18    11    12 1   
    19    11    15 1   
    20    12    13 2   
    21    13    14 1   
    22    14    15 2   
    23    14    16 1   
    24    16    17 ar  
    25    16    21 ar  
    26    17    18 ar  
    27    17    39 1   
    28    18    19 ar  
    29    18    22 1   
    30    19    20 ar  
    31    20    21 ar  
    32    20    40 1   
    33    21    41 1   
    34    22    23 1   
    35    22    26 2   
    36    23    24 1   
    37    23    42 1   
    38    24    25 1   
    39    24    43 1   
    40    24    44 1   
    41    25    27 ar  
    42    25    31 ar  
    43    27    28 ar  
    44    27    45 1   
    45    28    29 ar  
    46    28    46 1   
    47    29    30 ar  
    48    29    47 1   
    49    30    31 ar  
    50    30    32 1   
    51    31    48 1   
@<TRIPOS>SUBSTRUCTURE
     1 3EJ         1 TEMP              0 ****  ****    0 ROOT
