@<TRIPOS>MOLECULE
3EK
   58    61     1     0     0
SMALL
No Charge or Current Charge


@<TRIPOS>ATOM
      1 C1          -5.2640    -0.0970    -0.7460 c6         1 3EK      -0.079700
      2 C2          -5.8440    -0.4660     0.6510 c6         1 3EK      -0.072900
      3 C3          -6.5310     0.7490     1.3220 c6         1 3EK      -0.052400
      4 C4          -7.6410     1.3500     0.4140 c6         1 3EK      -0.190700
      5 C5          -7.0600     1.7230    -0.9790 c6         1 3EK      -0.052400
      6 C6          -6.3750     0.5060    -1.6490 c6         1 3EK      -0.072900
      7 C7          -4.5820    -1.3120    -1.4430 c3         1 3EK       0.083600
      8 N8          -3.4250    -1.8760    -0.7270 na         1 3EK      -0.033700
      9 N9          -2.1870    -1.3260    -0.8350 nc         1 3EK      -0.508800
     10 C10         -1.4640    -2.1160    -0.0540 cd         1 3EK       0.552500
     11 N11         -2.1740    -3.1440     0.5420 nd         1 3EK      -0.707000
     12 C12         -3.4080    -2.9720     0.1030 cc         1 3EK       0.411400
     13 C13         -0.0130    -1.9160     0.1610 ca         1 3EK      -0.066500
     14 C14          0.7310    -2.7740     0.9970 ca         1 3EK      -0.118000
     15 C15          2.1060    -2.5510     1.1780 ca         1 3EK       0.343300
     16 N16          2.7680    -1.5400     0.5760 nb         1 3EK      -0.692000
     17 C17          2.0700    -0.6930    -0.2400 ca         1 3EK       0.279500
     18 C18          0.6860    -0.8590    -0.4620 ca         1 3EK      -0.081000
     19 C19          2.9380    -3.4570     2.0650 c3         1 3EK      -0.141400
     20 C20          2.8140     0.4590    -0.9270 c          1 3EK       0.507600
     21 O21          2.2730     1.2680    -1.6750 o          1 3EK      -0.604100
     22 N22          4.1630     0.5400    -0.6490 ns         1 3EK      -0.495900
     23 C23          5.0700     1.5490    -1.1850 c3         1 3EK       0.156300
     24 C24          6.4840     1.3390    -0.6690 ca         1 3EK      -0.122300
     25 C25          7.3830     0.5160    -1.3780 ca         1 3EK      -0.068000
     26 C26          8.6900     0.3190    -0.8970 ca         1 3EK      -0.157000
     27 C27          9.0990     0.9420     0.2920 ca         1 3EK       0.172000
     28 C28          8.2100     1.7610     1.0050 ca         1 3EK      -0.157000
     29 C29          6.9020     1.9590     0.5260 ca         1 3EK      -0.068000
     30 C30         -8.3640     2.5440     1.0860 c          1 3EK       0.720000
     31 O31         -7.7130     3.5420     1.3580 o          1 3EK      -0.735000
     32 F32         10.3540     0.7520     0.7530 f          1 3EK      -0.183000
     33 O33         -9.5600     2.4340     1.3150 o          1 3EK      -0.735000
     34 H1          -4.4790     0.6620    -0.6110 hc         1 3EK       0.070700
     35 H2          -6.5660    -1.2880     0.5500 hc         1 3EK       0.019700
     36 H2A         -5.0450    -0.8320     1.3090 hc         1 3EK       0.019700
     37 H3          -6.9630     0.4420     2.2850 hc         1 3EK       0.047450
     38 H3A         -5.7770     1.5150     1.5510 hc         1 3EK       0.047450
     39 H4          -8.3980     0.5680     0.2580 hc         1 3EK       0.022700
     40 H5          -7.8630     2.0980    -1.6290 hc         1 3EK       0.047450
     41 H5A         -6.3340     2.5420    -0.8770 hc         1 3EK       0.047450
     42 H6          -5.9480     0.8150    -2.6130 hc         1 3EK       0.019700
     43 H6A         -7.1300    -0.2610    -1.8750 hc         1 3EK       0.019700
     44 H7          -5.3280    -2.1050    -1.5820 h1         1 3EK       0.058200
     45 H7A         -4.2460    -1.0010    -2.4400 h1         1 3EK       0.058200
     46 H12         -4.2860    -3.5650     0.3330 h5         1 3EK       0.065100
     47 H14          0.2550    -3.6080     1.5050 ha         1 3EK       0.144000
     48 H18          0.1660    -0.1650    -1.1180 ha         1 3EK       0.166000
     49 H19          3.4010    -4.2570     1.4760 hc         1 3EK       0.048700
     50 H19A         3.7380    -2.9020     2.5690 hc         1 3EK       0.048700
     51 H19B         2.3220    -3.9260     2.8420 hc         1 3EK       0.048700
     52 HN22         4.5280    -0.1690    -0.0200 hn         1 3EK       0.345500
     53 H23          5.0600     1.4920    -2.2820 h1         1 3EK       0.057700
     54 H23A         4.7100     2.5450    -0.8940 h1         1 3EK       0.057700
     55 H25          7.0690     0.0290    -2.2990 ha         1 3EK       0.123000
     56 H26          9.3840    -0.3150    -1.4430 ha         1 3EK       0.131000
     57 H28          8.5330     2.2390     1.9260 ha         1 3EK       0.131000
     58 H29          6.2150     2.5930     1.0830 ha         1 3EK       0.123000
@<TRIPOS>BOND
     1     1     2 1   
     2     1     6 1   
     3     1     7 1   
     4     1    34 1   
     5     2     3 1   
     6     2    35 1   
     7     2    36 1   
     8     3     4 1   
     9     3    37 1   
    10     3    38 1   
    11     4     5 1   
    12     4    30 1   
    13     4    39 1   
    14     5     6 1   
    15     5    40 1   
    16     5    41 1   
    17     6    42 1   
    18     6    43 1   
    19     7     8 1   
    20     7    44 1   
    21     7    45 1   
    22     8     9 1   
    23     8    12 1   
    24     9    10 2   
    25    10    11 1   
    26    10    13 1   
    27    11    12 2   
    28    12    46 1   
    29    13    14 ar  
    30    13    18 ar  
    31    14    15 ar  
    32    14    47 1   
    33    15    16 ar  
    34    15    19 1   
    35    16    17 ar  
    36    17    18 ar  
    37    17    20 1   
    38    18    48 1   
    39    19    49 1   
    40    19    50 1   
    41    19    51 1   
    42    20    21 2   
    43    20    22 1   
    44    22    23 1   
    45    22    52 1   
    46    23    24 1   
    47    23    53 1   
    48    23    54 1   
    49    24    25 ar  
    50    24    29 ar  
    51    25    26 ar  
    52    25    55 1   
    53    26    27 ar  
    54    26    56 1   
    55    27    28 ar  
    56    27    32 1   
    57    28    29 ar  
    58    28    57 1   
    59    29    58 1   
    60    30    31 1   
    61    30    33 1   
@<TRIPOS>SUBSTRUCTURE
     1 3EK         1 TEMP              0 ****  ****    0 ROOT
