@<TRIPOS>MOLECULE
3EK
   58    61     1     0     0
SMALL
abcg2


@<TRIPOS>ATOM
      1 C1          -5.0780    -0.1900    -0.8610 c6         1 3EK      -0.079700
      2 C2          -5.4770    -0.4610     0.5870 c6         1 3EK      -0.072900
      3 C3          -6.0560     0.7810     1.2550 c6         1 3EK      -0.052400
      4 C4          -7.2440     1.3440     0.4830 c6         1 3EK      -0.190700
      5 C5          -6.8450     1.6150    -0.9680 c6         1 3EK      -0.052400
      6 C6          -6.2630     0.3770    -1.6400 c6         1 3EK      -0.072900
      7 C7          -4.5580    -1.4380    -1.5670 c3         1 3EK       0.083600
      8 N8          -3.4060    -2.0170    -0.9060 na         1 3EK      -0.033700
      9 N9          -2.2240    -1.4090    -0.9120 nc         1 3EK      -0.508800
     10 C10         -1.4780    -2.1870    -0.1560 cd         1 3EK       0.552500
     11 N11         -2.1320    -3.2610     0.3370 nd         1 3EK      -0.707000
     12 C12         -3.3420    -3.1190    -0.1520 cc         1 3EK       0.411400
     13 C13         -0.0720    -1.9050     0.1200 ca         1 3EK      -0.066500
     14 C14          0.6540    -2.7100     0.9840 ca         1 3EK      -0.118000
     15 C15          1.9930    -2.4150     1.2410 ca         1 3EK       0.343300
     16 N16          2.5930    -1.3770     0.6770 nb         1 3EK      -0.692000
     17 C17          1.9010    -0.6040    -0.1570 ca         1 3EK       0.279500
     18 C18          0.5740    -0.8190    -0.4710 ca         1 3EK      -0.081000
     19 C19          2.8050    -3.2810     2.1540 c3         1 3EK      -0.141400
     20 C20          2.6280     0.5610    -0.7710 c          1 3EK       0.507600
     21 O21          2.0800     1.3060    -1.5720 o          1 3EK      -0.604100
     22 N22          3.8940     0.6950    -0.3670 ns         1 3EK      -0.495900
     23 C23          4.7580     1.7660    -0.8170 c3         1 3EK       0.156300
     24 C24          6.1930     1.4310    -0.5210 ca         1 3EK      -0.122300
     25 C25          6.8400     0.4180    -1.2270 ca         1 3EK      -0.068000
     26 C26          8.1570     0.0840    -0.9530 ca         1 3EK      -0.157000
     27 C27          8.8210     0.7790     0.0410 ca         1 3EK       0.172000
     28 C28          8.2150     1.7880     0.7620 ca         1 3EK      -0.157000
     29 C29          6.8940     2.1050     0.4730 ca         1 3EK      -0.068000
     30 C30         -7.8900     2.5800     1.1450 c          1 3EK       0.720000
     31 O31         -7.5670     2.8460     2.3210 o          1 3EK      -0.735000
     32 F32         10.0970     0.4620     0.3120 f          1 3EK      -0.183000
     33 O33         -8.7140     3.2150     0.4540 o          1 3EK      -0.735000
     34 H1          -4.2760     0.5590    -0.8660 hc         1 3EK       0.070700
     35 H2          -6.2200    -1.2680     0.6100 hc         1 3EK       0.019700
     36 H2A         -4.6170    -0.8150     1.1630 hc         1 3EK       0.019700
     37 H3          -6.3480     0.5430     2.2780 hc         1 3EK       0.047450
     38 H3A         -5.2740     1.5460     1.3300 hc         1 3EK       0.047450
     39 H4          -8.0230     0.5660     0.4600 hc         1 3EK       0.022700
     40 H5          -7.7080     1.9690    -1.5320 hc         1 3EK       0.047450
     41 H5A         -6.1030     2.4220    -0.9970 hc         1 3EK       0.047450
     42 H6          -5.9580     0.6140    -2.6640 hc         1 3EK       0.019700
     43 H6A         -7.0420    -0.3920    -1.7170 hc         1 3EK       0.019700
     44 H7          -5.3260    -2.2120    -1.5980 h1         1 3EK       0.058200
     45 H7A         -4.2750    -1.2120    -2.5960 h1         1 3EK       0.058200
     46 H12         -4.1840    -3.7750     0.0030 h5         1 3EK       0.065100
     47 H14          0.1880    -3.5610     1.4620 ha         1 3EK       0.144000
     48 H18          0.0550    -0.1610    -1.1530 ha         1 3EK       0.166000
     49 H19          3.0500    -4.2270     1.6660 hc         1 3EK       0.048700
     50 H19A         3.7380    -2.7900     2.4220 hc         1 3EK       0.048700
     51 H19B         2.2590    -3.5210     3.0660 hc         1 3EK       0.048700
     52 HN22         4.2270     0.0490     0.3340 hn         1 3EK       0.345500
     53 H23          4.6160     1.9070    -1.8900 h1         1 3EK       0.057700
     54 H23A         4.4860     2.7090    -0.3350 h1         1 3EK       0.057700
     55 H25          6.3120    -0.1170    -2.0070 ha         1 3EK       0.123000
     56 H26          8.6600    -0.7000    -1.5040 ha         1 3EK       0.131000
     57 H28          8.7580     2.3150     1.5340 ha         1 3EK       0.131000
     58 H29          6.4070     2.8930     1.0340 ha         1 3EK       0.123000
@<TRIPOS>BOND
     1     1     2 1   
     2     1     6 1   
     3     1     7 1   
     4     1    34 1   
     5     2     3 1   
     6     2    35 1   
     7     2    36 1   
     8     3     4 1   
     9     3    37 1   
    10     3    38 1   
    11     4     5 1   
    12     4    30 1   
    13     4    39 1   
    14     5     6 1   
    15     5    40 1   
    16     5    41 1   
    17     6    42 1   
    18     6    43 1   
    19     7     8 1   
    20     7    44 1   
    21     7    45 1   
    22     8     9 1   
    23     8    12 1   
    24     9    10 2   
    25    10    11 1   
    26    10    13 1   
    27    11    12 2   
    28    12    46 1   
    29    13    14 ar  
    30    13    18 ar  
    31    14    15 ar  
    32    14    47 1   
    33    15    16 ar  
    34    15    19 1   
    35    16    17 ar  
    36    17    18 ar  
    37    17    20 1   
    38    18    48 1   
    39    19    49 1   
    40    19    50 1   
    41    19    51 1   
    42    20    21 2   
    43    20    22 1   
    44    22    23 1   
    45    22    52 1   
    46    23    24 1   
    47    23    53 1   
    48    23    54 1   
    49    24    25 ar  
    50    24    29 ar  
    51    25    26 ar  
    52    25    55 1   
    53    26    27 ar  
    54    26    56 1   
    55    27    28 ar  
    56    27    32 1   
    57    28    29 ar  
    58    28    57 1   
    59    29    58 1   
    60    30    31 1   
    61    30    33 1   
@<TRIPOS>SUBSTRUCTURE
     1 3EK         1 TEMP              0 ****  ****    0 ROOT
