@<TRIPOS>MOLECULE
3EL
   71    76     1     0     0
SMALL
bcc


@<TRIPOS>ATOM
      1 C21         -6.1200    -1.2940     0.7860 c6         1 3EL      -0.091900
      2 C22         -7.4580    -1.9800     1.0370 c6         1 3EL      -0.071900
      3 C23         -7.7080    -3.0980     0.0320 c6         1 3EL       0.160500
      4 N6          -9.0160    -3.6960     0.2660 n8         1 3EL      -0.886800
      5 C24         -7.6390    -2.5400    -1.3850 c6         1 3EL      -0.071900
      6 C25         -6.3090    -1.8480    -1.6570 c6         1 3EL      -0.091900
      7 C20         -6.0430    -0.7430    -0.6390 c6         1 3EL       0.249500
      8 N5          -4.7630    -0.1310    -0.9280 nu         1 3EL      -0.866900
      9 C15         -4.3650     1.0790    -0.5010 ca         1 3EL       0.917900
     10 N3          -3.1080     1.4280    -0.8070 nb         1 3EL      -0.764000
     11 N4          -5.2400     1.8390     0.1680 nb         1 3EL      -0.770000
     12 C14         -4.8030     3.0260     0.5550 ca         1 3EL       0.480200
     13 C13         -3.5210     3.4840     0.3060 ca         1 3EL      -0.436600
     14 C12         -2.6920     2.6150    -0.4030 cp         1 3EL       0.563800
     15 C7          -1.3140     3.0140    -0.7560 cp         1 3EL      -0.282800
     16 C8          -1.0480     4.2820    -1.2510 ca         1 3EL      -0.048000
     17 C9           0.2440     4.6370    -1.6180 ca         1 3EL      -0.286300
     18 C10          1.2370     3.6900    -1.4700 ca         1 3EL       0.453200
     19 N2           1.0120     2.4740    -0.9780 nb         1 3EL      -0.746000
     20 C11         -0.2110     2.1550    -0.6320 ca         1 3EL       0.677600
     21 O1          -0.4260     0.9430    -0.0810 os         1 3EL      -0.350400
     22 C3           0.6060     0.0390    -0.0690 ca         1 3EL       0.132100
     23 C4           0.7720    -0.8020    -1.1280 ca         1 3EL      -0.122000
     24 C5           1.8160    -1.7410    -1.1140 ca         1 3EL      -0.077000
     25 C1           1.4370    -0.0290     1.0740 ca         1 3EL      -0.032000
     26 C19          1.2580     0.8280     2.1840 ca         1 3EL      -0.096000
     27 C18          2.0950     0.7530     3.2620 ca         1 3EL      -0.129000
     28 C17          3.1430    -0.1870     3.2800 ca         1 3EL      -0.109000
     29 C16          3.3330    -1.0330     2.2230 ca         1 3EL      -0.129000
     30 C2           2.4910    -0.9800     1.0890 ca         1 3EL      -0.040000
     31 C6           2.6730    -1.8180    -0.0490 ca         1 3EL       0.089600
     32 N1           3.7820    -2.6980    -0.1380 nu         1 3EL      -0.679500
     33 S1           5.1240    -2.1570    -0.9720 sy         1 3EL       1.284200
     34 O2           6.1330    -3.1850    -0.7910 o          1 3EL      -0.601300
     35 O3           4.6780    -1.7940    -2.3040 o          1 3EL      -0.601300
     36 C26          5.6330    -0.6770    -0.1490 ca         1 3EL      -0.307500
     37 C27          6.6130    -0.7470     0.8320 ca         1 3EL      -0.029500
     38 C28          6.9370     0.4010     1.5380 ca         1 3EL      -0.147500
     39 C29          6.2770     1.5940     1.2720 ca         1 3EL      -0.074000
     40 C30          5.2990     1.6490     0.2870 ca         1 3EL      -0.147500
     41 C31          4.9720     0.5130    -0.4350 ca         1 3EL      -0.029500
     42 H1          -5.9690    -0.4860     1.5040 hc         1 3EL       0.048450
     43 H2          -5.3030    -2.0100     0.9330 hc         1 3EL       0.048450
     44 H3          -7.4880    -2.3760     2.0560 hc         1 3EL       0.050700
     45 H4          -8.2730    -1.2510     0.9590 hc         1 3EL       0.050700
     46 H5          -6.8890    -3.8300     0.1410 h1         1 3EL       0.013700
     47 H6          -9.1580    -4.4570    -0.3870 hn         1 3EL       0.338300
     48 H7          -9.0290    -4.1220     1.1850 hn         1 3EL       0.338300
     49 H9          -7.7910    -3.3430    -2.1130 hc         1 3EL       0.050700
     50 H10         -8.4600    -1.8280    -1.5230 hc         1 3EL       0.050700
     51 H11         -5.4960    -2.5820    -1.6110 hc         1 3EL       0.048450
     52 H12         -6.3000    -1.4310    -2.6670 hc         1 3EL       0.048450
     53 H13         -6.8160     0.0250    -0.7530 h1         1 3EL       0.077700
     54 H14         -4.0530    -0.6970    -1.3650 hn         1 3EL       0.447800
     55 H15         -5.5070     3.6450     1.1000 h4         1 3EL       0.019100
     56 H16         -3.1880     4.4490     0.6570 ha         1 3EL       0.151000
     57 H17         -1.8590     4.9890    -1.3740 ha         1 3EL       0.145000
     58 H18          0.4670     5.6160    -2.0170 ha         1 3EL       0.150000
     59 H19          2.2600     3.9100    -1.7520 h4         1 3EL       0.022100
     60 H20          0.1110    -0.7430    -1.9820 ha         1 3EL       0.156000
     61 H21          1.9510    -2.4000    -1.9590 ha         1 3EL       0.163000
     62 H22          0.4500     1.5460     2.1830 ha         1 3EL       0.144000
     63 H23          1.9520     1.4150     4.1050 ha         1 3EL       0.134000
     64 H24          3.8020    -0.2410     4.1360 ha         1 3EL       0.133000
     65 H25          4.1440    -1.7460     2.2680 ha         1 3EL       0.123000
     66 H26          4.0370    -3.1990     0.7070 hn         1 3EL       0.435800
     67 H27          7.1200    -1.6780     1.0480 ha         1 3EL       0.156500
     68 H28          7.7030     0.3620     2.3000 ha         1 3EL       0.136500
     69 H29          6.5280     2.4840     1.8320 ha         1 3EL       0.133000
     70 H30          4.7870     2.5790     0.0820 ha         1 3EL       0.136500
     71 H31          4.2070     0.5630    -1.1980 ha         1 3EL       0.156500
@<TRIPOS>BOND
     1     1     2 1   
     2     1     7 1   
     3     1    42 1   
     4     1    43 1   
     5     2     3 1   
     6     2    44 1   
     7     2    45 1   
     8     3     4 1   
     9     3     5 1   
    10     3    46 1   
    11     4    47 1   
    12     4    48 1   
    13     5     6 1   
    14     5    49 1   
    15     5    50 1   
    16     6     7 1   
    17     6    51 1   
    18     6    52 1   
    19     7     8 1   
    20     7    53 1   
    21     8     9 1   
    22     8    54 1   
    23     9    10 ar  
    24     9    11 ar  
    25    10    14 ar  
    26    11    12 ar  
    27    12    13 ar  
    28    12    55 1   
    29    13    14 ar  
    30    13    56 1   
    31    14    15 1   
    32    15    16 ar  
    33    15    20 ar  
    34    16    17 ar  
    35    16    57 1   
    36    17    18 ar  
    37    17    58 1   
    38    18    19 ar  
    39    18    59 1   
    40    19    20 ar  
    41    20    21 1   
    42    21    22 1   
    43    22    23 ar  
    44    22    25 ar  
    45    23    24 ar  
    46    23    60 1   
    47    24    31 ar  
    48    24    61 1   
    49    25    26 ar  
    50    25    30 ar  
    51    26    27 ar  
    52    26    62 1   
    53    27    28 ar  
    54    27    63 1   
    55    28    29 ar  
    56    28    64 1   
    57    29    30 ar  
    58    29    65 1   
    59    30    31 ar  
    60    31    32 1   
    61    32    33 1   
    62    32    66 1   
    63    33    34 2   
    64    33    35 2   
    65    33    36 1   
    66    36    37 ar  
    67    36    41 ar  
    68    37    38 ar  
    69    37    67 1   
    70    38    39 ar  
    71    38    68 1   
    72    39    40 ar  
    73    39    69 1   
    74    40    41 ar  
    75    40    70 1   
    76    41    71 1   
@<TRIPOS>SUBSTRUCTURE
     1 3EL         1 TEMP              0 ****  ****    0 ROOT
