@<TRIPOS>MOLECULE
3EL
   71    76     1     0     0
SMALL
No Charge or Current Charge


@<TRIPOS>ATOM
      1 C21         -4.5510    -1.1180     1.3160 c6         1 3EL      -0.091900
      2 C22         -5.5050    -2.3140     1.5640 c6         1 3EL      -0.071900
      3 C23         -4.8830    -3.6410     1.0570 c6         1 3EL       0.160500
      4 N6          -5.8170    -4.7620     1.2650 n8         1 3EL      -0.997200
      5 C24         -4.4890    -3.5330    -0.4390 c6         1 3EL      -0.071900
      6 C25         -3.5360    -2.3340    -0.6800 c6         1 3EL      -0.091900
      7 C20         -4.1640    -1.0060    -0.1840 c6         1 3EL       0.249500
      8 N5          -3.1880     0.0740    -0.3810 nu         1 3EL      -0.922100
      9 C15         -3.4480     1.4370    -0.3510 ca         1 3EL       0.391900
     10 N3          -2.3570     2.2130    -0.3940 nb         1 3EL      -0.238000
     11 N4          -4.7260     1.8570    -0.2850 nb         1 3EL      -0.244000
     12 C14         -4.9130     3.1890    -0.2440 ca         1 3EL       0.151900
     13 C13         -3.8270     4.0810    -0.2660 ca         1 3EL      -0.288000
     14 C12         -2.5190     3.5450    -0.3300 cp         1 3EL       0.235500
     15 C7          -1.3040     4.4180    -0.3880 cp         1 3EL      -0.217500
     16 C8          -1.3430     5.6190    -1.1360 ca         1 3EL      -0.030000
     17 C9          -0.2050     6.4350    -1.1810 ca         1 3EL      -0.203000
     18 C10          0.9430     6.0510    -0.4780 ca         1 3EL       0.387900
     19 N2           1.0090     4.9190     0.2510 nb         1 3EL      -0.746000
     20 C11         -0.0790     4.1210     0.2840 ca         1 3EL       0.612300
     21 O1          -0.0030     3.0060     1.0820 os         1 3EL      -0.350400
     22 C3           0.3900     1.7690     0.6080 ca         1 3EL       0.132100
     23 C4           1.1360     1.6530    -0.5790 ca         1 3EL      -0.104000
     24 C5           1.4780     0.3880    -1.0780 ca         1 3EL      -0.059000
     25 C1          -0.0140     0.6010     1.2960 ca         1 3EL      -0.032000
     26 C19         -0.7760     0.7060     2.4830 ca         1 3EL      -0.078000
     27 C18         -1.1970    -0.4430     3.1660 ca         1 3EL      -0.111000
     28 C17         -0.8690    -1.7110     2.6690 ca         1 3EL      -0.091000
     29 C16         -0.1160    -1.8320     1.4910 ca         1 3EL      -0.111000
     30 C2           0.3250    -0.6810     0.7870 ca         1 3EL      -0.040000
     31 C6           1.0870    -0.7890    -0.4100 ca         1 3EL       0.228000
     32 N1           1.4330    -2.0480    -0.9220 nu         1 3EL      -0.873100
     33 S1           2.6740    -2.5030    -1.9600 sy         1 3EL       1.142600
     34 O2           2.7230    -3.9520    -1.7560 o          1 3EL      -0.530500
     35 O3           2.3270    -1.9030    -3.2500 o          1 3EL      -0.530500
     36 C26          4.1560    -1.7490    -1.2770 ca         1 3EL      -0.307500
     37 C27          4.6800    -2.2220    -0.0560 ca         1 3EL      -0.011500
     38 C28          5.8310    -1.6290     0.4900 ca         1 3EL      -0.129500
     39 C29          6.4640    -0.5660    -0.1770 ca         1 3EL      -0.056000
     40 C30          5.9440    -0.0950    -1.3940 ca         1 3EL      -0.129500
     41 C31          4.7920    -0.6830    -1.9470 ca         1 3EL      -0.011500
     42 H1          -5.0310    -0.1910     1.6550 hc         1 3EL       0.048450
     43 H2          -3.6470    -1.2410     1.9270 hc         1 3EL       0.048450
     44 H3          -5.7280    -2.3890     2.6380 hc         1 3EL       0.050700
     45 H4          -6.4620    -2.1300     1.0570 hc         1 3EL       0.050700
     46 H5          -3.9810    -3.8600     1.6480 h1         1 3EL       0.013700
     47 H6          -5.3450    -5.6360     1.0050 hn         1 3EL       0.393500
     48 H7          -5.9820    -4.8700     2.2730 hn         1 3EL       0.393500
     49 H9          -4.0010    -4.4610    -0.7680 hc         1 3EL       0.050700
     50 H10         -5.3900    -3.4160    -1.0580 hc         1 3EL       0.050700
     51 H11         -2.5830    -2.5170    -0.1640 hc         1 3EL       0.048450
     52 H12         -3.3040    -2.2600    -1.7520 hc         1 3EL       0.048450
     53 H13         -5.0730    -0.8160    -0.7770 h1         1 3EL       0.077700
     54 H14         -2.1990    -0.1650    -0.3390 hn         1 3EL       0.503000
     55 H15         -5.9410     3.5440    -0.1900 h4         1 3EL       0.019100
     56 H16         -3.9960     5.1530    -0.2220 ha         1 3EL       0.133000
     57 H17         -2.2380     5.9070    -1.6840 ha         1 3EL       0.127000
     58 H18         -0.2070     7.3590    -1.7530 ha         1 3EL       0.132000
     59 H19          1.8380     6.6720    -0.4940 h4         1 3EL       0.022100
     60 H20          1.4540     2.5350    -1.1290 ha         1 3EL       0.138000
     61 H21          2.0430     0.3380    -2.0020 ha         1 3EL       0.145000
     62 H22         -1.0500     1.6790     2.8840 ha         1 3EL       0.126000
     63 H23         -1.7840    -0.3510     4.0770 ha         1 3EL       0.116000
     64 H24         -1.2010    -2.6030     3.1960 ha         1 3EL       0.115000
     65 H25          0.1110    -2.8340     1.1390 ha         1 3EL       0.105000
     66 H26          1.2380    -2.8590    -0.3550 hn         1 3EL       0.491000
     67 H27          4.1960    -3.0430     0.4730 ha         1 3EL       0.138500
     68 H28          6.2330    -1.9940     1.4330 ha         1 3EL       0.118500
     69 H29          7.3550    -0.1090     0.2480 ha         1 3EL       0.115000
     70 H30          6.4330     0.7270    -1.9110 ha         1 3EL       0.118500
     71 H31          4.4030    -0.3060    -2.8920 ha         1 3EL       0.138500
@<TRIPOS>BOND
     1     1     2 1   
     2     1     7 1   
     3     1    42 1   
     4     1    43 1   
     5     2     3 1   
     6     2    44 1   
     7     2    45 1   
     8     3     4 1   
     9     3     5 1   
    10     3    46 1   
    11     4    47 1   
    12     4    48 1   
    13     5     6 1   
    14     5    49 1   
    15     5    50 1   
    16     6     7 1   
    17     6    51 1   
    18     6    52 1   
    19     7     8 1   
    20     7    53 1   
    21     8     9 1   
    22     8    54 1   
    23     9    10 ar  
    24     9    11 ar  
    25    10    14 ar  
    26    11    12 ar  
    27    12    13 ar  
    28    12    55 1   
    29    13    14 ar  
    30    13    56 1   
    31    14    15 1   
    32    15    16 ar  
    33    15    20 ar  
    34    16    17 ar  
    35    16    57 1   
    36    17    18 ar  
    37    17    58 1   
    38    18    19 ar  
    39    18    59 1   
    40    19    20 ar  
    41    20    21 1   
    42    21    22 1   
    43    22    23 ar  
    44    22    25 ar  
    45    23    24 ar  
    46    23    60 1   
    47    24    31 ar  
    48    24    61 1   
    49    25    26 ar  
    50    25    30 ar  
    51    26    27 ar  
    52    26    62 1   
    53    27    28 ar  
    54    27    63 1   
    55    28    29 ar  
    56    28    64 1   
    57    29    30 ar  
    58    29    65 1   
    59    30    31 ar  
    60    31    32 1   
    61    32    33 1   
    62    32    66 1   
    63    33    34 2   
    64    33    35 2   
    65    33    36 1   
    66    36    37 ar  
    67    36    41 ar  
    68    37    38 ar  
    69    37    67 1   
    70    38    39 ar  
    71    38    68 1   
    72    39    40 ar  
    73    39    69 1   
    74    40    41 ar  
    75    40    70 1   
    76    41    71 1   
@<TRIPOS>SUBSTRUCTURE
     1 3EL         1 TEMP              0 ****  ****    0 ROOT
