@<TRIPOS>MOLECULE
3EM
  108   112     1     0     0
SMALL
No Charge or Current Charge


@<TRIPOS>ATOM
      1 C4          -9.4600     1.4830    -5.2810 cc         1 3EM       0.414300
      2 C6          -7.8530     2.3730    -1.8480 c3         1 3EM       0.261900
      3 C15         -1.9050     0.7980     1.2380 c3         1 3EM       0.110700
      4 C21          2.9770    -1.6940    -0.3010 c          1 3EM       0.651100
      5 C1          -9.8680     1.3710    -3.1000 cd         1 3EM       0.289900
      6 C2          -8.6260     1.9620    -3.0660 cc         1 3EM      -0.251300
      7 N11         -6.4250     0.0660     0.4440 ns         1 3EM      -0.491900
      8 C12         -5.7210    -0.2060     1.7090 c3         1 3EM       0.090700
      9 C19          0.5890    -2.0520     0.4320 c3         1 3EM       0.052700
     10 CF5         12.0520     0.2520    -4.6700 c3         1 3EM      -0.120100
     11 CF4         12.0890    -0.3760    -3.2640 c3         1 3EM       0.223800
     12 CF2         12.3800     1.6510    -1.7790 c3         1 3EM       0.223800
     13 CF3         11.6900     3.0150    -1.9610 c3         1 3EM      -0.120100
     14 CE2         10.2800     0.2450    -1.6160 ca         1 3EM       0.399000
     15 CE1         10.0740     0.4600    -0.2460 ca         1 3EM      -0.240000
     16 CE3          9.2110    -0.2350    -2.3910 ca         1 3EM      -0.220000
     17 CE4          7.9570    -0.4940    -1.8130 ca         1 3EM      -0.012000
     18 CD7          7.7550    -0.2760    -0.4340 ca         1 3EM      -0.222800
     19 CD6          8.8280     0.2040     0.3360 ca         1 3EM       0.227100
     20 OD5          8.6780     0.4320     1.6780 os         1 3EM      -0.342200
     21 CD4          7.5120     0.2270     2.3580 c          1 3EM       0.672300
     22 OD4          7.4240     0.4500     3.5560 o          1 3EM      -0.491000
     23 CD3          6.3820    -0.2720     1.5690 cc         1 3EM      -0.329200
     24 CD2          6.4580    -0.5330     0.2150 cd         1 3EM       0.041600
     25 CD1          5.2640    -1.0470    -0.5810 c3         1 3EM       0.213800
     26 OD1          4.1460    -1.3230     0.2830 os         1 3EM      -0.453100
     27 O76          2.7820    -1.8140    -1.5000 o          1 3EM      -0.550000
     28 N20          2.0290    -1.8230     0.6700 ns         1 3EM      -0.489900
     29 C62          0.2010    -3.5410     0.6920 c3         1 3EM      -0.068700
     30 C68         -1.3220    -3.7870     0.5690 c3         1 3EM      -0.092600
     31 C64          0.9800    -4.5220    -0.2190 c3         1 3EM      -0.092600
     32 O61          0.0930    -0.8430     2.4960 o          1 3EM      -0.596100
     33 N58         -1.2320    -0.3840     0.6930 ns         1 3EM      -0.492900
     34 C44         -1.2420     2.0940     0.6960 c3         1 3EM      -0.051100
     35 C45          0.2840     2.0860     0.7820 ca         1 3EM      -0.090300
     36 C48          0.9300     2.3440     2.0060 ca         1 3EM      -0.100000
     37 C49          2.3330     2.3030     2.0910 ca         1 3EM      -0.111000
     38 C50          3.0990     2.0070     0.9510 ca         1 3EM      -0.107000
     39 C51          2.4610     1.7550    -0.2750 ca         1 3EM      -0.111000
     40 C52          1.0590     1.7930    -0.3590 ca         1 3EM      -0.100000
     41 C13         -4.1930    -0.4620     1.5050 c3         1 3EM       0.170300
     42 O41         -4.0130    -1.5480     0.5820 oh         1 3EM      -0.654000
     43 C26         -6.4250    -1.3540     2.4760 c3         1 3EM      -0.049100
     44 C28         -7.9060    -1.0800     2.7250 ca         1 3EM      -0.088300
     45 C31         -8.8940    -1.8000     2.0240 ca         1 3EM      -0.102000
     46 C32        -10.2560    -1.5370     2.2480 ca         1 3EM      -0.107000
     47 C33        -10.6400    -0.5530     3.1750 ca         1 3EM      -0.108000
     48 C34         -9.6600     0.1670     3.8780 ca         1 3EM      -0.107000
     49 C35         -8.2970    -0.0960     3.6540 ca         1 3EM      -0.102000
     50 C10         -6.7190     1.3090    -0.0390 c          1 3EM       0.639100
     51 O24         -6.3900     2.3650     0.4780 o          1 3EM      -0.535000
     52 O7          -7.4360     1.1720    -1.1850 os         1 3EM      -0.464100
     53 S3          -7.9920     2.2000    -4.6700 ss         1 3EM      -0.009400
     54 N5         -10.3510     1.0970    -4.3730 nd         1 3EM      -0.632000
     55 H1          -9.5900     1.3820    -6.3510 h5         1 3EM       0.053100
     56 H2          -6.9860     2.9810    -2.1420 h1         1 3EM       0.065200
     57 H3          -8.4940     2.9810    -1.1940 h1         1 3EM       0.065200
     58 H4          -1.7650     0.7950     2.3280 h1         1 3EM       0.089700
     59 H5         -10.4680     1.1170    -2.2340 h4         1 3EM       0.045100
     60 H6          -6.8230    -0.7070    -0.0730 hn         1 3EM       0.321500
     61 H7          -5.8130     0.6880     2.3420 h1         1 3EM       0.086700
     62 H8          -3.8520     1.6750     1.4650 hc         1 3EM       0.060200
     63 H9          -3.6290     0.9070    -0.0960 hc         1 3EM       0.060200
     64 H10          0.3600    -1.8050    -0.6130 h1         1 3EM       0.081700
     65 H11         12.6620     1.1620    -4.7060 hc         1 3EM       0.044867
     66 H12         12.4470    -0.4540    -5.4090 hc         1 3EM       0.044867
     67 H13         11.0260     0.5110    -4.9540 hc         1 3EM       0.044867
     68 H14         11.5360    -1.3250    -3.2870 h1         1 3EM       0.051700
     69 H15         13.1290    -0.6350    -3.0210 h1         1 3EM       0.051700
     70 H16         12.6740     1.5320    -0.7270 h1         1 3EM       0.051700
     71 H17         13.3140     1.6680    -2.3560 h1         1 3EM       0.051700
     72 H18         10.7840     3.0830    -1.3480 hc         1 3EM       0.044867
     73 H19         12.3670     3.8240    -1.6630 hc         1 3EM       0.044867
     74 H20         11.4130     3.1670    -3.0110 hc         1 3EM       0.044867
     75 H21         10.8810     0.8190     0.3820 ha         1 3EM       0.139000
     76 H22          9.3400    -0.3980    -3.4550 ha         1 3EM       0.120000
     77 H23          7.1560    -0.8580    -2.4520 ha         1 3EM       0.114000
     78 H24          5.4760    -0.4210     2.1410 ha         1 3EM       0.224000
     79 H25          4.9940    -0.2860    -1.3250 h1         1 3EM       0.065200
     80 H26          5.5600    -1.9570    -1.1190 h1         1 3EM       0.065200
     81 H27          2.3410    -1.6330     1.6140 hn         1 3EM       0.345500
     82 H28          0.4770    -3.7760     1.7290 hc         1 3EM       0.070700
     83 H29         -1.6870    -3.4950    -0.4240 hc         1 3EM       0.039867
     84 H30         -1.5580    -4.8470     0.7210 hc         1 3EM       0.039867
     85 H31         -1.8750    -3.2180     1.3240 hc         1 3EM       0.039867
     86 H32          2.0600    -4.4560    -0.0430 hc         1 3EM       0.039867
     87 H33          0.6790    -5.5580    -0.0230 hc         1 3EM       0.039867
     88 H34          0.7900    -4.3050    -1.2780 hc         1 3EM       0.039867
     89 H35         -1.4400    -0.6540    -0.2600 hn         1 3EM       0.310500
     90 H36         -1.5490     2.2390    -0.3480 hc         1 3EM       0.053200
     91 H37         -1.6420     2.9540     1.2470 hc         1 3EM       0.053200
     92 H38          0.3440     2.5640     2.8960 ha         1 3EM       0.112500
     93 H39          2.8260     2.4960     3.0410 ha         1 3EM       0.114500
     94 H40          4.1850     1.9720     1.0170 ha         1 3EM       0.117000
     95 H41          3.0520     1.5240    -1.1580 ha         1 3EM       0.114500
     96 H42          0.5740     1.5860    -1.3110 ha         1 3EM       0.112500
     97 H43         -3.7680    -0.7240     2.4850 h1         1 3EM       0.078700
     98 H44         -4.4930    -1.2990    -0.2350 ho         1 3EM       0.443000
     99 H45         -6.3010    -2.2920     1.9210 hc         1 3EM       0.062700
    100 H46         -5.9160    -1.5040     3.4360 hc         1 3EM       0.062700
    101 H47         -8.6080    -2.5630     1.3020 ha         1 3EM       0.109000
    102 H48        -11.0140    -2.0960     1.7030 ha         1 3EM       0.113000
    103 H49        -11.6940    -0.3500     3.3480 ha         1 3EM       0.112000
    104 H50         -9.9550     0.9290     4.5960 ha         1 3EM       0.113000
    105 H51         -7.5450     0.4680     4.2020 ha         1 3EM       0.109000
    106 C14         -3.4350     0.7850     0.9770 c3         1 3EM      -0.124400
    107 C18         -0.2010    -1.0530     1.3240 c          1 3EM       0.593100
    108 NF1         11.5410     0.5070    -2.2090 nh         1 3EM      -0.816400
@<TRIPOS>BOND
     1     1    53 1   
     2     1    54 2   
     3     1    55 1   
     4     2     6 1   
     5     2    52 1   
     6     2    56 1   
     7     2    57 1   
     8     3    33 1   
     9     3    34 1   
    10     3    58 1   
    11     3   106 1   
    12     4    26 1   
    13     4    27 2   
    14     4    28 1   
    15     5     6 2   
    16     5    54 1   
    17     5    59 1   
    18     6    53 1   
    19     7     8 1   
    20     7    50 1   
    21     7    60 1   
    22     8    41 1   
    23     8    43 1   
    24     8    61 1   
    25     9    28 1   
    26     9    29 1   
    27     9    64 1   
    28     9   107 1   
    29    10    11 1   
    30    10    65 1   
    31    10    66 1   
    32    10    67 1   
    33    11    68 1   
    34    11    69 1   
    35    11   108 1   
    36    12    13 1   
    37    12    70 1   
    38    12    71 1   
    39    12   108 1   
    40    13    72 1   
    41    13    73 1   
    42    13    74 1   
    43    14    15 ar  
    44    14    16 ar  
    45    14   108 1   
    46    15    19 ar  
    47    15    75 1   
    48    16    17 ar  
    49    16    76 1   
    50    17    18 ar  
    51    17    77 1   
    52    18    19 ar  
    53    18    24 1   
    54    19    20 1   
    55    20    21 1   
    56    21    22 2   
    57    21    23 1   
    58    23    24 2   
    59    23    78 1   
    60    24    25 1   
    61    25    26 1   
    62    25    79 1   
    63    25    80 1   
    64    28    81 1   
    65    29    30 1   
    66    29    31 1   
    67    29    82 1   
    68    30    83 1   
    69    30    84 1   
    70    30    85 1   
    71    31    86 1   
    72    31    87 1   
    73    31    88 1   
    74    32   107 2   
    75    33    89 1   
    76    33   107 1   
    77    34    35 1   
    78    34    90 1   
    79    34    91 1   
    80    35    36 ar  
    81    35    40 ar  
    82    36    37 ar  
    83    36    92 1   
    84    37    38 ar  
    85    37    93 1   
    86    38    39 ar  
    87    38    94 1   
    88    39    40 ar  
    89    39    95 1   
    90    40    96 1   
    91    41    42 1   
    92    41    97 1   
    93    41   106 1   
    94    42    98 1   
    95    43    44 1   
    96    43    99 1   
    97    43   100 1   
    98    44    45 ar  
    99    44    49 ar  
   100    45    46 ar  
   101    45   101 1   
   102    46    47 ar  
   103    46   102 1   
   104    47    48 ar  
   105    47   103 1   
   106    48    49 ar  
   107    48   104 1   
   108    49   105 1   
   109    50    51 2   
   110    50    52 1   
   111    62   106 1   
   112    63   106 1   
@<TRIPOS>SUBSTRUCTURE
     1 3EM         1 TEMP              0 ****  ****    0 ROOT
