@<TRIPOS>MOLECULE
3EM
  108   112     1     0     0
SMALL
abcg2


@<TRIPOS>ATOM
      1 C4          -8.3810    -0.2600    -5.4790 cc         1 3EM       0.414300
      2 C6          -7.7020     1.6210    -2.1530 c3         1 3EM       0.261900
      3 C15         -1.5500     0.6950     1.5860 c3         1 3EM       0.110700
      4 C21          2.7360    -1.7650    -0.1650 c          1 3EM       0.651100
      5 C1          -9.4180     0.7030    -3.8130 cd         1 3EM       0.289900
      6 C2          -8.1470     0.9160    -3.3810 cc         1 3EM      -0.251300
      7 N11         -5.8170     0.1570     0.4430 ns         1 3EM      -0.491900
      8 C12         -5.4290     0.2570     1.8340 c3         1 3EM       0.090700
      9 C19          0.4930    -2.3750     0.6380 c3         1 3EM       0.052700
     10 CF5         10.3020     2.2270    -4.6710 c3         1 3EM      -0.120100
     11 CF4         10.8500     0.9100    -4.1360 c3         1 3EM       0.223800
     12 CF2         11.9920     1.2780    -1.9610 c3         1 3EM       0.223800
     13 CF3         11.8400     2.6810    -1.3870 c3         1 3EM      -0.120100
     14 CE2          9.7060     0.4110    -2.0270 ca         1 3EM       0.399000
     15 CE1          9.6870     0.2830    -0.6260 ca         1 3EM      -0.240000
     16 CE3          8.5040     0.1030    -2.7190 ca         1 3EM      -0.220000
     17 CE4          7.3860    -0.3220    -2.0480 ca         1 3EM      -0.012000
     18 CD7          7.3660    -0.4680    -0.6530 ca         1 3EM      -0.222800
     19 CD6          8.5480    -0.1510     0.0200 ca         1 3EM       0.227100
     20 OD5          8.6220    -0.2590     1.3680 os         1 3EM      -0.342200
     21 CD4          7.5820    -0.6740     2.1390 c          1 3EM       0.672300
     22 OD4          7.7740    -0.7280     3.3310 o          1 3EM      -0.491000
     23 CD3          6.3510    -1.0000     1.4650 cc         1 3EM      -0.329200
     24 CD2          6.2380    -0.9000     0.1200 cd         1 3EM       0.041600
     25 CD1          4.9710    -1.2120    -0.6130 c3         1 3EM       0.213800
     26 OD1          3.9880    -1.6340     0.3040 os         1 3EM      -0.453100
     27 O76          2.4360    -1.5970    -1.3270 o          1 3EM      -0.550000
     28 N20          1.9050    -2.1270     0.8250 ns         1 3EM      -0.489900
     29 C62          0.1190    -3.8300     0.9530 c3         1 3EM      -0.068700
     30 C68         -1.3800    -4.0430     0.7770 c3         1 3EM      -0.092600
     31 C64          0.9070    -4.7950     0.0750 c3         1 3EM      -0.092600
     32 O61         -0.1290    -1.4830     2.7640 o          1 3EM      -0.596100
     33 N58         -0.9770    -0.4620     0.9260 ns         1 3EM      -0.492900
     34 C44         -0.7900     1.9620     1.1610 c3         1 3EM      -0.051100
     35 C45          0.7010     1.8120     1.2670 ca         1 3EM      -0.090300
     36 C48          1.3130     1.6350     2.5070 ca         1 3EM      -0.100000
     37 C49          2.6860     1.4660     2.6050 ca         1 3EM      -0.111000
     38 C50          3.4740     1.4810     1.4610 ca         1 3EM      -0.107000
     39 C51          2.8770     1.6610     0.2220 ca         1 3EM      -0.111000
     40 C52          1.5000     1.8170     0.1280 ca         1 3EM      -0.100000
     41 C13         -3.9540    -0.1210     2.0220 c3         1 3EM       0.170300
     42 O41         -3.7270    -1.4710     1.6750 oh         1 3EM      -0.654000
     43 C26         -6.3620    -0.5880     2.7140 c3         1 3EM      -0.049100
     44 C28         -7.7940    -0.1670     2.5500 ca         1 3EM      -0.088300
     45 C31         -8.6350    -0.8180     1.6510 ca         1 3EM      -0.102000
     46 C32         -9.9380    -0.3810     1.4480 ca         1 3EM      -0.107000
     47 C33        -10.4220     0.7140     2.1510 ca         1 3EM      -0.108000
     48 C34         -9.5950     1.3660     3.0580 ca         1 3EM      -0.107000
     49 C35         -8.2930     0.9290     3.2500 ca         1 3EM      -0.102000
     50 C10         -6.4840     1.1350    -0.1980 c          1 3EM       0.639100
     51 O24         -6.6320     2.2730     0.1930 o          1 3EM      -0.535000
     52 O7          -6.9580     0.6900    -1.3720 os         1 3EM      -0.464100
     53 S3          -7.0470     0.2480    -4.5240 ss         1 3EM      -0.009400
     54 N5          -9.5430     0.0410    -4.9990 nd         1 3EM      -0.632000
     55 H1          -8.2260    -0.7960    -6.4050 h5         1 3EM       0.053100
     56 H2          -7.0880     2.4900    -2.4000 h1         1 3EM       0.065200
     57 H3          -8.5810     1.9770    -1.6100 h1         1 3EM       0.065200
     58 H4          -1.4130     0.5470     2.6580 h1         1 3EM       0.089700
     59 H5         -10.3020     1.0230    -3.2790 h4         1 3EM       0.045100
     60 H6          -5.8570    -0.7690     0.0420 hn         1 3EM       0.321500
     61 H7          -5.5350     1.3030     2.1280 h1         1 3EM       0.086700
     62 H8          -3.3370     1.8630     1.5770 hc         1 3EM       0.060200
     63 H9          -3.2040     0.7880     0.2060 hc         1 3EM       0.060200
     64 H10          0.2580    -2.1780    -0.4100 h1         1 3EM       0.081700
     65 H11         10.8790     3.0740    -4.3020 hc         1 3EM       0.044867
     66 H12         10.3530     2.2360    -5.7600 hc         1 3EM       0.044867
     67 H13          9.2610     2.3780    -4.3850 hc         1 3EM       0.044867
     68 H14         10.3110     0.0700    -4.5750 h1         1 3EM       0.051700
     69 H15         11.8860     0.7900    -4.4530 h1         1 3EM       0.051700
     70 H16         12.2520     0.5740    -1.1670 h1         1 3EM       0.051700
     71 H17         12.8330     1.2580    -2.6530 h1         1 3EM       0.051700
     72 H18         11.0030     2.7520    -0.6930 hc         1 3EM       0.044867
     73 H19         12.7450     2.9550    -0.8430 hc         1 3EM       0.044867
     74 H20         11.6880     3.4180    -2.1760 hc         1 3EM       0.044867
     75 H21         10.5550     0.5080    -0.0230 ha         1 3EM       0.139000
     76 H22          8.4390     0.2070    -3.7910 ha         1 3EM       0.120000
     77 H23          6.5000    -0.5420    -2.6290 ha         1 3EM       0.114000
     78 H24          5.5330    -1.3190     2.0920 ha         1 3EM       0.224000
     79 H25          4.6440    -0.3190    -1.1540 h1         1 3EM       0.065200
     80 H26          5.1630    -1.9880    -1.3610 h1         1 3EM       0.065200
     81 H27          2.2700    -2.1960     1.7630 hn         1 3EM       0.345500
     82 H28          0.3770    -4.0230     1.9990 hc         1 3EM       0.070700
     83 H29         -1.6920    -3.8180    -0.2470 hc         1 3EM       0.039867
     84 H30         -1.6450    -5.0810     0.9790 hc         1 3EM       0.039867
     85 H31         -1.9700    -3.4220     1.4510 hc         1 3EM       0.039867
     86 H32          1.9820    -4.7020     0.2260 hc         1 3EM       0.039867
     87 H33          0.6340    -5.8260     0.3060 hc         1 3EM       0.039867
     88 H34          0.7000    -4.6280    -0.9840 hc         1 3EM       0.039867
     89 H35         -0.9540    -0.4430    -0.0820 hn         1 3EM       0.310500
     90 H36         -1.0600     2.2140     0.1310 hc         1 3EM       0.053200
     91 H37         -1.1400     2.7910     1.7820 hc         1 3EM       0.053200
     92 H38          0.7080     1.6300     3.4060 ha         1 3EM       0.112500
     93 H39          3.1440     1.3270     3.5760 ha         1 3EM       0.114500
     94 H40          4.5470     1.3570     1.5380 ha         1 3EM       0.117000
     95 H41          3.4830     1.6890    -0.6750 ha         1 3EM       0.114500
     96 H42          1.0430     1.9540    -0.8450 ha         1 3EM       0.112500
     97 H43         -3.7440    -0.0420     3.0950 h1         1 3EM       0.078700
     98 H44         -3.4810    -1.5210     0.7470 ho         1 3EM       0.443000
     99 H45         -6.2450    -1.6440     2.4570 hc         1 3EM       0.062700
    100 H46         -6.0500    -0.4750     3.7550 hc         1 3EM       0.062700
    101 H47         -8.2700    -1.6800     1.1040 ha         1 3EM       0.109000
    102 H48        -10.5740    -0.8970     0.7420 ha         1 3EM       0.113000
    103 H49        -11.4380     1.0530     1.9980 ha         1 3EM       0.112000
    104 H50         -9.9660     2.2180     3.6140 ha         1 3EM       0.113000
    105 H51         -7.6510     1.4470     3.9540 ha         1 3EM       0.109000
    106 C14         -3.0400     0.8520     1.2880 c3         1 3EM      -0.124400
    107 C18         -0.2470    -1.3970     1.5510 c          1 3EM       0.593100
    108 NF1         10.8280     0.7950    -2.6870 nh         1 3EM      -0.816400
@<TRIPOS>BOND
     1     1    53 1   
     2     1    54 2   
     3     1    55 1   
     4     2     6 1   
     5     2    52 1   
     6     2    56 1   
     7     2    57 1   
     8     3    33 1   
     9     3    34 1   
    10     3    58 1   
    11     3   106 1   
    12     4    26 1   
    13     4    27 2   
    14     4    28 1   
    15     5     6 2   
    16     5    54 1   
    17     5    59 1   
    18     6    53 1   
    19     7     8 1   
    20     7    50 1   
    21     7    60 1   
    22     8    41 1   
    23     8    43 1   
    24     8    61 1   
    25     9    28 1   
    26     9    29 1   
    27     9    64 1   
    28     9   107 1   
    29    10    11 1   
    30    10    65 1   
    31    10    66 1   
    32    10    67 1   
    33    11    68 1   
    34    11    69 1   
    35    11   108 1   
    36    12    13 1   
    37    12    70 1   
    38    12    71 1   
    39    12   108 1   
    40    13    72 1   
    41    13    73 1   
    42    13    74 1   
    43    14    15 ar  
    44    14    16 ar  
    45    14   108 1   
    46    15    19 ar  
    47    15    75 1   
    48    16    17 ar  
    49    16    76 1   
    50    17    18 ar  
    51    17    77 1   
    52    18    19 ar  
    53    18    24 1   
    54    19    20 1   
    55    20    21 1   
    56    21    22 2   
    57    21    23 1   
    58    23    24 2   
    59    23    78 1   
    60    24    25 1   
    61    25    26 1   
    62    25    79 1   
    63    25    80 1   
    64    28    81 1   
    65    29    30 1   
    66    29    31 1   
    67    29    82 1   
    68    30    83 1   
    69    30    84 1   
    70    30    85 1   
    71    31    86 1   
    72    31    87 1   
    73    31    88 1   
    74    32   107 2   
    75    33    89 1   
    76    33   107 1   
    77    34    35 1   
    78    34    90 1   
    79    34    91 1   
    80    35    36 ar  
    81    35    40 ar  
    82    36    37 ar  
    83    36    92 1   
    84    37    38 ar  
    85    37    93 1   
    86    38    39 ar  
    87    38    94 1   
    88    39    40 ar  
    89    39    95 1   
    90    40    96 1   
    91    41    42 1   
    92    41    97 1   
    93    41   106 1   
    94    42    98 1   
    95    43    44 1   
    96    43    99 1   
    97    43   100 1   
    98    44    45 ar  
    99    44    49 ar  
   100    45    46 ar  
   101    45   101 1   
   102    46    47 ar  
   103    46   102 1   
   104    47    48 ar  
   105    47   103 1   
   106    48    49 ar  
   107    48   104 1   
   108    49   105 1   
   109    50    51 2   
   110    50    52 1   
   111    62   106 1   
   112    63   106 1   
@<TRIPOS>SUBSTRUCTURE
     1 3EM         1 TEMP              0 ****  ****    0 ROOT
