@<TRIPOS>MOLECULE
3EN
   73    75     1     0     0
SMALL
abcg2


@<TRIPOS>ATOM
      1 C1          -6.5440    -1.6680     1.3040 cc         1 3EN       0.286900
      2 C2          -5.2960    -1.8630     0.8020 cd         1 3EN      -0.249300
      3 C4          -5.9150    -3.2350     2.6920 cd         1 3EN       0.410300
      4 C6          -4.6560    -1.1890    -0.3560 c3         1 3EN       0.260900
      5 C10         -2.7560     0.1340    -0.7790 c          1 3EN       0.640100
      6 C12         -0.8730     1.7010    -0.8320 c3         1 3EN       0.125700
      7 C13          0.6110     1.4480    -0.5700 c3         1 3EN       0.173300
      8 C14          1.0760     0.1300    -1.1820 c3         1 3EN      -0.122400
      9 C15          2.5920    -0.0570    -1.1700 c3         1 3EN       0.091700
     10 N5          -6.8890    -2.4480     2.3690 nc         1 3EN      -0.632000
     11 C19          4.8450    -0.0780     1.9010 c3         1 3EN       0.090500
     12 C52          5.0640    -2.3690    -0.9910 ca         1 3EN      -0.105500
     13 C51          6.4440    -2.5110    -0.9100 ca         1 3EN      -0.106500
     14 C50          7.2660    -1.8210    -1.7910 ca         1 3EN      -0.107000
     15 C49          6.6990    -0.9930    -2.7520 ca         1 3EN      -0.106500
     16 C48          5.3210    -0.8480    -2.8210 ca         1 3EN      -0.105500
     17 C45          4.4860    -1.5300    -1.9400 ca         1 3EN      -0.086300
     18 C44          3.0010    -1.3060    -1.9690 c3         1 3EN      -0.055100
     19 N58          3.1080    -0.1380     0.1910 ns         1 3EN      -0.503900
     20 O61          4.8060     1.3450    -0.0480 o          1 3EN      -0.585100
     21 N20          6.2020     0.3480     2.1440 n8         1 3EN      -0.980200
     22 C62          3.9130     0.2880     3.0750 c3         1 3EN      -0.047700
     23 C68          4.4100    -0.3310     4.3760 c3         1 3EN      -0.087600
     24 C64          3.7260     1.7960     3.2280 c3         1 3EN      -0.087600
     25 O41          0.8090     1.4960     0.8280 oh         1 3EN      -0.679000
     26 C26         -1.3050     3.1040    -0.3690 c3         1 3EN      -0.051100
     27 C28         -2.7630     3.3490    -0.6300 ca         1 3EN      -0.085300
     28 C31         -3.1960     3.8270    -1.8650 ca         1 3EN      -0.100500
     29 C32         -4.5470     3.9900    -2.1320 ca         1 3EN      -0.108000
     30 C33         -5.4920     3.6710    -1.1650 ca         1 3EN      -0.108000
     31 C34         -5.0740     3.1980     0.0710 ca         1 3EN      -0.108000
     32 C35         -3.7200     3.0430     0.3350 ca         1 3EN      -0.100500
     33 N11         -1.6720     0.6790    -0.1980 ns         1 3EN      -0.487900
     34 O24         -3.0630     0.2260    -1.9470 o          1 3EN      -0.537000
     35 O7          -3.4660    -0.5690     0.1200 os         1 3EN      -0.465100
     36 S3          -4.5090    -3.0890     1.7170 ss         1 3EN      -0.007400
     37 H1          -7.2520    -0.9510     0.9110 h4         1 3EN       0.044100
     38 H2          -5.9480    -3.9370     3.5140 h5         1 3EN       0.052100
     39 H3          -4.4250    -1.9070    -1.1470 h1         1 3EN       0.064200
     40 H4          -5.3480    -0.4500    -0.7660 h1         1 3EN       0.064200
     41 H5          -1.0310     1.6300    -1.9090 h1         1 3EN       0.082700
     42 H6           1.1650     2.2620    -1.0640 h1         1 3EN       0.045700
     43 H7           0.5900    -0.7120    -0.6790 hc         1 3EN       0.062700
     44 H8           0.7500     0.1000    -2.2250 hc         1 3EN       0.062700
     45 H9           3.0560     0.8160    -1.6330 h1         1 3EN       0.087700
     46 H10          4.8530    -1.1720     1.8320 h1         1 3EN       0.063700
     47 H11          4.4270    -2.9190    -0.3070 ha         1 3EN       0.109000
     48 H12          6.8750    -3.1650    -0.1630 ha         1 3EN       0.115000
     49 H13          8.3410    -1.9340    -1.7340 ha         1 3EN       0.115000
     50 H14          7.3330    -0.4570    -3.4470 ha         1 3EN       0.115000
     51 H15          4.8870    -0.1930    -3.5680 ha         1 3EN       0.109000
     52 H16          2.4770    -2.1770    -1.5650 hc         1 3EN       0.055200
     53 H17          2.6550    -1.1790    -2.9970 hc         1 3EN       0.055200
     54 H18          2.8510    -0.9790     0.6920 hn         1 3EN       0.298500
     55 H19          6.8090    -0.0310     1.4270 hn         1 3EN       0.409500
     56 H20          6.2760     1.3540     2.0550 hn         1 3EN       0.409500
     57 H22          2.9320    -0.1500     2.8570 hc         1 3EN       0.036700
     58 H23          5.3620     0.1040     4.6770 hc         1 3EN       0.039700
     59 H24          3.6910    -0.1610     5.1780 hc         1 3EN       0.039700
     60 H25          4.5500    -1.4090     4.2770 hc         1 3EN       0.039700
     61 H26          3.3360     2.2680     2.3250 hc         1 3EN       0.039700
     62 H27          3.0170     2.0070     4.0300 hc         1 3EN       0.039700
     63 H28          4.6630     2.2930     3.4860 hc         1 3EN       0.039700
     64 H29          1.6320     1.0300     1.0210 ho         1 3EN       0.465000
     65 H30         -1.0920     3.2160     0.6970 hc         1 3EN       0.062200
     66 H31         -0.6950     3.8420    -0.8950 hc         1 3EN       0.062200
     67 H32         -2.4650     4.0710    -2.6280 ha         1 3EN       0.110000
     68 H33         -4.8640     4.3670    -3.0960 ha         1 3EN       0.111500
     69 H34         -6.5470     3.7950    -1.3740 ha         1 3EN       0.111000
     70 H35         -5.8030     2.9510     0.8330 ha         1 3EN       0.111500
     71 H36         -3.4030     2.6790     1.3060 ha         1 3EN       0.110000
     72 H37         -1.5580     0.5630     0.7980 hn         1 3EN       0.333500
     73 C18          4.2770     0.4470     0.5780 c          1 3EN       0.555100
@<TRIPOS>BOND
     1     1     2 2   
     2     1    10 1   
     3     1    37 1   
     4     2     4 1   
     5     2    36 1   
     6     3    10 2   
     7     3    36 1   
     8     3    38 1   
     9     4    35 1   
    10     4    39 1   
    11     4    40 1   
    12     5    33 1   
    13     5    34 2   
    14     5    35 1   
    15     6     7 1   
    16     6    26 1   
    17     6    33 1   
    18     6    41 1   
    19     7     8 1   
    20     7    25 1   
    21     7    42 1   
    22     8     9 1   
    23     8    43 1   
    24     8    44 1   
    25     9    18 1   
    26     9    19 1   
    27     9    45 1   
    28    11    21 1   
    29    11    22 1   
    30    11    46 1   
    31    11    73 1   
    32    12    13 ar  
    33    12    17 ar  
    34    12    47 1   
    35    13    14 ar  
    36    13    48 1   
    37    14    15 ar  
    38    14    49 1   
    39    15    16 ar  
    40    15    50 1   
    41    16    17 ar  
    42    16    51 1   
    43    17    18 1   
    44    18    52 1   
    45    18    53 1   
    46    19    54 1   
    47    19    73 1   
    48    20    73 2   
    49    21    55 1   
    50    21    56 1   
    51    22    23 1   
    52    22    24 1   
    53    22    57 1   
    54    23    58 1   
    55    23    59 1   
    56    23    60 1   
    57    24    61 1   
    58    24    62 1   
    59    24    63 1   
    60    25    64 1   
    61    26    27 1   
    62    26    65 1   
    63    26    66 1   
    64    27    28 ar  
    65    27    32 ar  
    66    28    29 ar  
    67    28    67 1   
    68    29    30 ar  
    69    29    68 1   
    70    30    31 ar  
    71    30    69 1   
    72    31    32 ar  
    73    31    70 1   
    74    32    71 1   
    75    33    72 1   
@<TRIPOS>SUBSTRUCTURE
     1 3EN         1 TEMP              0 ****  ****    0 ROOT
