@<TRIPOS>MOLECULE
3EN
   73    75     1     0     0
SMALL
No Charge or Current Charge


@<TRIPOS>ATOM
      1 C1          -5.7320    -1.7810     1.9700 cc         1 3EN       0.286900
      2 C2          -5.0200    -2.2550     0.8980 cd         1 3EN      -0.249300
      3 C4          -5.5660    -3.9020     2.5940 cd         1 3EN       0.410300
      4 C6          -4.5420    -1.4770    -0.2940 c3         1 3EN       0.260900
      5 C10         -2.8480     0.1220    -0.8070 c          1 3EN       0.640100
      6 C12         -0.9730     1.7980    -0.8900 c3         1 3EN       0.125700
      7 C13          0.5410     1.5210    -0.6310 c3         1 3EN       0.173300
      8 C14          1.0150     0.1690    -1.2270 c3         1 3EN      -0.122400
      9 C15          2.5480    -0.0640    -1.1960 c3         1 3EN       0.091700
     10 N5          -6.0470    -2.7080     2.9330 nc         1 3EN      -0.632000
     11 C19          4.6410    -0.0760     2.0930 c3         1 3EN       0.090500
     12 C52          4.9820    -2.6310    -1.2810 ca         1 3EN      -0.105500
     13 C51          6.3670    -2.8650    -1.2350 ca         1 3EN      -0.106500
     14 C50          7.2470    -2.0190    -1.9310 ca         1 3EN      -0.107000
     15 C49          6.7400    -0.9390    -2.6730 ca         1 3EN      -0.106500
     16 C48          5.3550    -0.7040    -2.7190 ca         1 3EN      -0.105500
     17 C45          4.4680    -1.5480    -2.0230 ca         1 3EN      -0.086300
     18 C44          2.9660    -1.2790    -2.0600 c3         1 3EN      -0.055100
     19 N58          3.0530    -0.2370     0.1750 ns         1 3EN      -0.503900
     20 O61          4.5960     1.4480     0.1590 o          1 3EN      -0.585100
     21 N20          6.1250     0.0670     2.2930 n8         1 3EN      -0.980200
     22 C62          3.8420     0.5140     3.2980 c3         1 3EN      -0.047700
     23 C68          4.1070    -0.2580     4.6150 c3         1 3EN      -0.087600
     24 C64          4.0420     2.0390     3.4930 c3         1 3EN      -0.087600
     25 O41          0.8100     1.5240     0.7760 oh         1 3EN      -0.679000
     26 C26         -1.3990     3.2350    -0.4950 c3         1 3EN      -0.051100
     27 C28         -2.8590     3.5330    -0.8190 ca         1 3EN      -0.085300
     28 C31         -3.2400     3.8590    -2.1350 ca         1 3EN      -0.100500
     29 C32         -4.5880     4.1210    -2.4390 ca         1 3EN      -0.108000
     30 C33         -5.5620     4.0590    -1.4290 ca         1 3EN      -0.108000
     31 C34         -5.1880     3.7340    -0.1140 ca         1 3EN      -0.108000
     32 C35         -3.8410     3.4730     0.1910 ca         1 3EN      -0.100500
     33 N11         -1.8220     0.8030    -0.2210 ns         1 3EN      -0.487900
     34 O24         -3.1750     0.2060    -1.9800 o          1 3EN      -0.537000
     35 O7          -3.4280    -0.6780     0.1260 os         1 3EN      -0.465100
     36 S3          -4.6940    -3.9700     1.0650 ss         1 3EN      -0.007400
     37 H1          -6.0600    -0.7600     2.1150 h4         1 3EN       0.044100
     38 H2          -5.6780    -4.8030     3.1850 h5         1 3EN       0.052100
     39 H3          -4.2490    -2.1690    -1.0950 h1         1 3EN       0.064200
     40 H4          -5.3590    -0.8440    -0.6670 h1         1 3EN       0.064200
     41 H5          -1.1300     1.7070    -1.9740 h1         1 3EN       0.082700
     42 H6           1.1160     2.3190    -1.1210 h1         1 3EN       0.045700
     43 H7           0.5080    -0.6620    -0.7190 hc         1 3EN       0.062700
     44 H8           0.6860     0.1330    -2.2730 hc         1 3EN       0.062700
     45 H9           3.0240     0.8210    -1.6410 h1         1 3EN       0.087700
     46 H10          4.4350    -1.1560     2.0700 h1         1 3EN       0.063700
     47 H11          4.3090    -3.2890    -0.7350 ha         1 3EN       0.109000
     48 H12          6.7580    -3.7010    -0.6590 ha         1 3EN       0.115000
     49 H13          8.3190    -2.2000    -1.8960 ha         1 3EN       0.115000
     50 H14          7.4200    -0.2820    -3.2120 ha         1 3EN       0.115000
     51 H15          4.9710     0.1370    -3.2920 ha         1 3EN       0.109000
     52 H16          2.4150    -2.1660    -1.7210 hc         1 3EN       0.055200
     53 H17          2.6510    -1.1060    -3.0960 hc         1 3EN       0.055200
     54 H18          2.7490    -1.0570     0.6880 hn         1 3EN       0.298500
     55 H19          6.6130    -0.3740     1.5040 hn         1 3EN       0.409500
     56 H20          6.3710     1.0580     2.1880 hn         1 3EN       0.409500
     57 H22          2.7790     0.3660     3.0720 hc         1 3EN       0.036700
     58 H23          5.1440    -0.1300     4.9480 hc         1 3EN       0.039700
     59 H24          3.4470     0.1030     5.4130 hc         1 3EN       0.039700
     60 H25          3.9190    -1.3300     4.4810 hc         1 3EN       0.039700
     61 H26          3.7730     2.5930     2.5860 hc         1 3EN       0.039700
     62 H27          3.4060     2.4080     4.3070 hc         1 3EN       0.039700
     63 H28          5.0830     2.2740     3.7460 hc         1 3EN       0.039700
     64 H29          1.6690     1.0590     0.8750 ho         1 3EN       0.465000
     65 H30         -1.2120     3.3850     0.5760 hc         1 3EN       0.062200
     66 H31         -0.7530     3.9520    -1.0160 hc         1 3EN       0.062200
     67 H32         -2.4930     3.9050    -2.9240 ha         1 3EN       0.110000
     68 H33         -4.8760     4.3710    -3.4580 ha         1 3EN       0.111500
     69 H34         -6.6050     4.2610    -1.6640 ha         1 3EN       0.111000
     70 H35         -5.9420     3.6840     0.6690 ha         1 3EN       0.111500
     71 H36         -3.5620     3.2170     1.2100 ha         1 3EN       0.110000
     72 H37         -1.6550     0.6080     0.7560 hn         1 3EN       0.333500
     73 C18          4.1030     0.4790     0.7240 c          1 3EN       0.555100
@<TRIPOS>BOND
     1     1     2 2   
     2     1    10 1   
     3     1    37 1   
     4     2     4 1   
     5     2    36 1   
     6     3    10 2   
     7     3    36 1   
     8     3    38 1   
     9     4    35 1   
    10     4    39 1   
    11     4    40 1   
    12     5    33 1   
    13     5    34 2   
    14     5    35 1   
    15     6     7 1   
    16     6    26 1   
    17     6    33 1   
    18     6    41 1   
    19     7     8 1   
    20     7    25 1   
    21     7    42 1   
    22     8     9 1   
    23     8    43 1   
    24     8    44 1   
    25     9    18 1   
    26     9    19 1   
    27     9    45 1   
    28    11    21 1   
    29    11    22 1   
    30    11    46 1   
    31    11    73 1   
    32    12    13 ar  
    33    12    17 ar  
    34    12    47 1   
    35    13    14 ar  
    36    13    48 1   
    37    14    15 ar  
    38    14    49 1   
    39    15    16 ar  
    40    15    50 1   
    41    16    17 ar  
    42    16    51 1   
    43    17    18 1   
    44    18    52 1   
    45    18    53 1   
    46    19    54 1   
    47    19    73 1   
    48    20    73 2   
    49    21    55 1   
    50    21    56 1   
    51    22    23 1   
    52    22    24 1   
    53    22    57 1   
    54    23    58 1   
    55    23    59 1   
    56    23    60 1   
    57    24    61 1   
    58    24    62 1   
    59    24    63 1   
    60    25    64 1   
    61    26    27 1   
    62    26    65 1   
    63    26    66 1   
    64    27    28 ar  
    65    27    32 ar  
    66    28    29 ar  
    67    28    67 1   
    68    29    30 ar  
    69    29    68 1   
    70    30    31 ar  
    71    30    69 1   
    72    31    32 ar  
    73    31    70 1   
    74    32    71 1   
    75    33    72 1   
@<TRIPOS>SUBSTRUCTURE
     1 3EN         1 TEMP              0 ****  ****    0 ROOT
