@<TRIPOS>MOLECULE
3EO
   98   104     1     0     0
SMALL
abcg2


@<TRIPOS>ATOM
      1 C1           0.8430     2.7450    -3.1690 c3         1 3EO       0.157600
      2 C2          -0.6390     2.7550    -2.8430 cy         1 3EO       0.071700
      3 C3          -1.2520     4.0950    -2.3950 cy         1 3EO      -0.086400
      4 C4          -1.8250     3.3630    -1.1590 cy         1 3EO       0.028700
      5 C6          -3.3120     3.0360    -1.3440 c          1 3EO       0.593100
      6 C7          -1.2830     0.9890    -1.0480 c          1 3EO       0.643100
      7 C11         -5.6120     3.3240    -0.6240 c3         1 3EO       0.101000
      8 C12         -6.3980     2.1450    -0.0520 c3         1 3EO      -0.087400
      9 C15         -5.0620    -1.4410    -0.8070 c2         1 3EO      -0.178200
     10 C16         -4.1420    -1.9680    -1.6170 c2         1 3EO      -0.201200
     11 C19         -1.5550    -1.3120    -1.7010 cx         1 3EO      -0.062600
     12 C21         -1.9660    -1.8770    -3.0290 cx         1 3EO      -0.101400
     13 C30          1.4240    -3.5900     3.4880 cx         1 3EO      -0.076900
     14 C31          2.1470    -2.8110     2.4400 cx         1 3EO      -0.076900
     15 C33          1.9080     2.1280    -1.1430 ca         1 3EO       0.209100
     16 C34          1.8620     2.4670     0.2330 ca         1 3EO      -0.123000
     17 C35          2.2840     0.8560    -1.4970 ca         1 3EO      -0.264000
     18 C36          2.2110     1.4630     1.1710 ca         1 3EO       0.326000
     19 C37          2.6000    -0.0640    -0.4770 ca         1 3EO       0.359000
     20 C39          1.4550     3.7280     0.7060 ca         1 3EO      -0.038000
     21 C40          1.3980     3.9940     2.0470 ca         1 3EO      -0.189000
     22 S25         -0.5610    -2.3920     2.0260 s6         1 3EO       1.252800
     23 O27         -0.3200    -1.2190     2.8500 o          1 3EO      -0.526500
     24 C26          0.8420    -3.4620     2.1070 cx         1 3EO      -0.389000
     25 C29          0.7900    -4.6440     1.1780 c3         1 3EO      -0.037100
     26 N23         -0.5530    -1.7940     0.4520 ns         1 3EO      -0.559300
     27 C22         -1.3040    -2.2840    -0.5930 c          1 3EO       0.681100
     28 O24         -1.7470    -3.4080    -0.6120 o          1 3EO      -0.549100
     29 C20         -3.0070    -1.2160    -2.2010 cx         1 3EO      -0.047500
     30 C14         -5.0790    -0.0550    -0.2430 c3         1 3EO      -0.055200
     31 C13         -6.2450     0.7930    -0.7550 c3         1 3EO      -0.064400
     32 N9          -4.1760     3.3500    -0.3680 n          1 3EO      -0.385800
     33 C10         -3.7530     3.7770     0.9550 c3         1 3EO       0.083300
     34 O8          -3.6600     2.5400    -2.4110 o          1 3EO      -0.626100
     35 N18         -0.8000    -0.0990    -1.7320 ns         1 3EO      -0.476900
     36 O17         -1.9260     0.8600    -0.0180 o          1 3EO      -0.608100
     37 N5          -1.0080     2.2200    -1.5300 nj         1 3EO      -0.403800
     38 O32          1.6130     3.0920    -2.0260 os         1 3EO      -0.340100
     39 C43          2.9770    -1.4350    -0.8680 cc         1 3EO       0.377400
     40 N45          3.9850    -2.0990    -0.4060 nd         1 3EO      -0.609000
     41 C47          4.0830    -3.3410    -0.9740 cd         1 3EO       0.296300
     42 C48          5.2290    -4.2360    -0.5950 c3         1 3EO      -0.088000
     43 C50          5.2260    -4.5370     0.9030 c3         1 3EO      -0.087600
     44 C49          5.2580    -5.5230    -1.4090 c3         1 3EO      -0.087600
     45 C46          3.1040    -3.6220    -1.8800 cc         1 3EO      -0.264000
     46 S44          2.0400    -2.2920    -2.0390 ss         1 3EO      -0.034400
     47 N38          2.5790     0.2110     0.8000 nb         1 3EO      -0.654000
     48 C41          2.1500     1.7520     2.5450 ca         1 3EO      -0.126000
     49 C42          1.7500     2.9950     2.9850 ca         1 3EO       0.161100
     50 O51          1.7090     3.1850     4.3120 os         1 3EO      -0.333100
     51 C52          1.2420     4.4210     4.8200 c3         1 3EO       0.150900
     52 H1           1.1520     1.7860    -3.5930 h1         1 3EO       0.063200
     53 H2           1.0420     3.5010    -3.9290 h1         1 3EO       0.063200
     54 H3          -1.1850     2.2920    -3.6700 h1         1 3EO       0.075700
     55 H4          -0.5060     4.8430    -2.1290 hc         1 3EO       0.074700
     56 H5          -1.9730     4.5370    -3.0770 hc         1 3EO       0.074700
     57 H6          -1.5690     3.8000    -0.1960 h1         1 3EO       0.094700
     58 H7          -5.7720     3.3820    -1.6990 h1         1 3EO       0.052200
     59 H8          -6.0200     4.2440    -0.1980 h1         1 3EO       0.052200
     60 H9          -6.1860     2.0340     1.0170 hc         1 3EO       0.042200
     61 H10         -7.4480     2.4460    -0.1100 hc         1 3EO       0.042200
     62 H11         -5.8850    -2.0840    -0.5050 ha         1 3EO       0.168000
     63 H12         -4.2500    -3.0040    -1.9190 ha         1 3EO       0.185000
     64 H13         -1.5940    -1.3650    -3.9080 hc         1 3EO       0.085200
     65 H14         -1.9910    -2.9560    -3.1140 hc         1 3EO       0.085200
     66 H16          0.9740    -3.0460     4.3080 hc         1 3EO       0.091950
     67 H17          2.1950    -1.7340     2.5230 hc         1 3EO       0.091950
     68 H18          3.0130    -3.2520     1.9690 hc         1 3EO       0.091950
     69 H19          2.3910     0.5570    -2.5310 ha         1 3EO       0.127000
     70 H20          1.1790     4.5050     0.0050 ha         1 3EO       0.121000
     71 H21          1.0730     4.9720     2.3710 ha         1 3EO       0.117000
     72 H22         -0.0970    -5.2540     1.3370 hc         1 3EO       0.048367
     73 H23          0.8210    -4.3330     0.1350 hc         1 3EO       0.048367
     74 H24          1.6640    -5.2700     1.3540 hc         1 3EO       0.048367
     75 H25         -0.2230    -0.8390     0.4010 hn         1 3EO       0.353500
     76 H26         -3.2480    -0.1970    -2.4860 hc         1 3EO       0.097700
     77 H27         -5.1750    -0.1410     0.8460 hc         1 3EO       0.059700
     78 H28         -4.1320     0.4430    -0.4250 hc         1 3EO       0.059700
     79 H29         -7.1710     0.2270    -0.6160 hc         1 3EO       0.041700
     80 H30         -6.1450     0.9470    -1.8330 hc         1 3EO       0.041700
     81 H31         -3.3970     4.8090     0.9660 h1         1 3EO       0.046367
     82 H32         -4.6020     3.7130     1.6310 h1         1 3EO       0.046367
     83 H33         -2.9780     3.1250     1.3520 h1         1 3EO       0.046367
     84 H34         -0.2550     0.0600    -2.5650 hn         1 3EO       0.305500
     85 H38          6.1460    -3.6780    -0.8160 hc         1 3EO       0.064700
     86 H39          4.3390    -5.1060     1.1890 hc         1 3EO       0.038367
     87 H40          6.1010    -5.1300     1.1720 hc         1 3EO       0.038367
     88 H41          5.2530    -3.6220     1.4960 hc         1 3EO       0.038367
     89 H42          5.3320    -5.3260    -2.4790 hc         1 3EO       0.038367
     90 H43          6.1210    -6.1260    -1.1260 hc         1 3EO       0.038367
     91 H44          4.3650    -6.1280    -1.2380 hc         1 3EO       0.038367
     92 H45          2.9570    -4.5210    -2.4560 h4         1 3EO       0.163000
     93 H47          2.4080     0.9750     3.2530 ha         1 3EO       0.154000
     94 H48          0.2190     4.6330     4.5000 h1         1 3EO       0.041367
     95 H49          1.2590     4.3330     5.9030 h1         1 3EO       0.041367
     96 H50          1.8860     5.2540     4.5270 h1         1 3EO       0.041367
     97 H15          1.7800    -4.5780     3.7530 hc         1 3EO       0.091950
     98 O28         -1.7680    -3.1660     2.2340 o          1 3EO      -0.526500
@<TRIPOS>BOND
     1     1     2 1   
     2     1    38 1   
     3     1    52 1   
     4     1    53 1   
     5     2     3 1   
     6     2    37 1   
     7     2    54 1   
     8     3     4 1   
     9     3    55 1   
    10     3    56 1   
    11     4     5 1   
    12     4    37 1   
    13     4    57 1   
    14     5    32 1   
    15     5    34 2   
    16     6    35 1   
    17     6    36 2   
    18     6    37 1   
    19     7     8 1   
    20     7    32 1   
    21     7    58 1   
    22     7    59 1   
    23     8    31 1   
    24     8    60 1   
    25     8    61 1   
    26     9    10 2   
    27     9    30 1   
    28     9    62 1   
    29    10    29 1   
    30    10    63 1   
    31    11    12 1   
    32    11    27 1   
    33    11    29 1   
    34    11    35 1   
    35    12    29 1   
    36    12    64 1   
    37    12    65 1   
    38    13    14 1   
    39    13    24 1   
    40    13    66 1   
    41    13    97 1   
    42    14    24 1   
    43    14    67 1   
    44    14    68 1   
    45    15    16 ar  
    46    15    17 ar  
    47    15    38 1   
    48    16    18 ar  
    49    16    20 ar  
    50    17    19 ar  
    51    17    69 1   
    52    18    47 ar  
    53    18    48 ar  
    54    19    39 1   
    55    19    47 ar  
    56    20    21 ar  
    57    20    70 1   
    58    21    49 ar  
    59    21    71 1   
    60    22    23 2   
    61    22    24 1   
    62    22    26 1   
    63    22    98 2   
    64    24    25 1   
    65    25    72 1   
    66    25    73 1   
    67    25    74 1   
    68    26    27 1   
    69    26    75 1   
    70    27    28 2   
    71    29    76 1   
    72    30    31 1   
    73    30    77 1   
    74    30    78 1   
    75    31    79 1   
    76    31    80 1   
    77    32    33 1   
    78    33    81 1   
    79    33    82 1   
    80    33    83 1   
    81    35    84 1   
    82    39    40 2   
    83    39    46 1   
    84    40    41 1   
    85    41    42 1   
    86    41    45 2   
    87    42    43 1   
    88    42    44 1   
    89    42    85 1   
    90    43    86 1   
    91    43    87 1   
    92    43    88 1   
    93    44    89 1   
    94    44    90 1   
    95    44    91 1   
    96    45    46 1   
    97    45    92 1   
    98    48    49 ar  
    99    48    93 1   
   100    49    50 1   
   101    50    51 1   
   102    51    94 1   
   103    51    95 1   
   104    51    96 1   
@<TRIPOS>SUBSTRUCTURE
     1 3EO         1 TEMP              0 ****  ****    0 ROOT
