@<TRIPOS>MOLECULE
3EO
   98   104     1     0     0
SMALL
No Charge or Current Charge


@<TRIPOS>ATOM
      1 C1           0.6120     2.6030    -2.9740 c3         1 3EO       0.157600
      2 C2          -0.7150     2.5060    -2.1690 cy         1 3EO       0.071700
      3 C3          -1.2430     3.8170    -1.4630 cy         1 3EO      -0.086400
      4 C4          -1.7350     2.8810    -0.2790 cy         1 3EO       0.028700
      5 C6          -3.2850     2.8010    -0.7890 c          1 3EO       0.593100
      6 C7          -1.3440     0.7140    -0.7710 c          1 3EO       0.643100
      7 C11         -5.7170     2.8500    -0.0190 c3         1 3EO       0.101000
      8 C12         -6.5360     1.5710     0.3130 c3         1 3EO      -0.087400
      9 C15         -5.1810    -1.5660    -1.6920 c2         1 3EO      -0.178200
     10 C16         -4.2530    -1.8270    -2.6310 c2         1 3EO      -0.201200
     11 C19         -1.7210    -1.3180    -2.2120 cx         1 3EO      -0.062600
     12 C21         -1.8840    -1.5240    -3.7080 cx         1 3EO      -0.101400
     13 C30         -0.0160    -2.7990     3.1660 cx         1 3EO      -0.076900
     14 C31          0.2820    -1.9270     1.9690 cx         1 3EO      -0.076900
     15 C33          2.2540     2.2750    -1.1510 ca         1 3EO       0.209100
     16 C34          2.6340     2.8390     0.0780 ca         1 3EO      -0.123000
     17 C35          2.4450     0.9010    -1.3520 ca         1 3EO      -0.264000
     18 C36          3.1720     1.9920     1.0720 ca         1 3EO       0.326000
     19 C37          2.9760     0.1110    -0.3160 ca         1 3EO       0.359000
     20 C39          2.4700     4.2170     0.3340 ca         1 3EO      -0.038000
     21 C40          2.8440     4.7540     1.5750 ca         1 3EO      -0.189000
     22 S25         -2.0770    -3.4740     1.1820 s6         1 3EO       1.252800
     23 O27         -2.9410    -2.9050     2.2210 o          1 3EO      -0.526500
     24 C26         -0.2930    -3.3210     1.7650 cx         1 3EO      -0.389000
     25 C29          0.5960    -4.4300     1.1940 c3         1 3EO      -0.037100
     26 N23         -2.1420    -2.4380    -0.1110 ns         1 3EO      -0.559300
     27 C22         -1.6380    -2.5910    -1.3540 c          1 3EO       0.681100
     28 O24         -1.1570    -3.6370    -1.7620 o          1 3EO      -0.549100
     29 C20         -3.0400    -0.9980    -2.8980 cx         1 3EO      -0.047500
     30 C14         -5.1780    -0.3930    -0.7230 c3         1 3EO      -0.055200
     31 C13         -6.4860     0.4200    -0.7290 c3         1 3EO      -0.064400
     32 N9          -4.2520     2.7920     0.2620 n          1 3EO      -0.385800
     33 C10         -3.8570     2.8110     1.6900 c3         1 3EO       0.083300
     34 O8          -3.7330     2.7190    -1.9320 o          1 3EO      -0.626100
     35 N18         -0.9640    -0.1430    -1.7940 ns         1 3EO      -0.476900
     36 O17         -2.1280     0.2850     0.0600 o          1 3EO      -0.608100
     37 N5          -0.6400     1.9580    -0.7630 nj         1 3EO      -0.403800
     38 O32          1.6880     3.0720    -2.1280 os         1 3EO      -0.340100
     39 C43          3.1760    -1.3480    -0.5210 cc         1 3EO       0.377400
     40 N45          4.1760    -2.0540     0.0100 nd         1 3EO      -0.609000
     41 C47          4.0960    -3.3790    -0.3890 cd         1 3EO       0.296300
     42 C48          5.1230    -4.3740     0.1050 c3         1 3EO      -0.088000
     43 C50          4.5400    -5.2750     1.2160 c3         1 3EO      -0.087600
     44 C49          5.7240    -5.2100    -1.0490 c3         1 3EO      -0.087600
     45 C46          3.0490    -3.6610    -1.2340 cc         1 3EO      -0.264000
     46 S44          2.0910    -2.2490    -1.5570 ss         1 3EO      -0.034400
     47 N38          3.3350     0.6670     0.8720 nb         1 3EO      -0.654000
     48 C41          3.5420     2.5460     2.3080 ca         1 3EO      -0.126000
     49 C42          3.3840     3.9140     2.5690 ca         1 3EO       0.161100
     50 O51          3.7700     4.3820     3.8090 os         1 3EO      -0.333100
     51 C52          3.6480     5.7680     4.1780 c3         1 3EO       0.150900
     52 H1           0.8390     1.6350    -3.4320 h1         1 3EO       0.063200
     53 H2           0.4440     3.3160    -3.7910 h1         1 3EO       0.063200
     54 H3          -1.4860     2.0500    -2.8030 h1         1 3EO       0.075700
     55 H4          -0.4410     4.4960    -1.1530 hc         1 3EO       0.074700
     56 H5          -1.9620     4.4270    -2.0220 hc         1 3EO       0.074700
     57 H6          -1.5590     3.3140     0.7090 h1         1 3EO       0.094700
     58 H7          -5.9100     3.1380    -1.0600 h1         1 3EO       0.052200
     59 H8          -6.1240     3.6660     0.5930 h1         1 3EO       0.052200
     60 H9          -6.2570     1.1890     1.3020 hc         1 3EO       0.042200
     61 H10         -7.5850     1.8790     0.3980 hc         1 3EO       0.042200
     62 H11         -6.0360    -2.2360    -1.5760 ha         1 3EO       0.168000
     63 H12         -4.3710    -2.7040    -3.2720 ha         1 3EO       0.185000
     64 H13         -1.3810    -0.8300    -4.3770 hc         1 3EO       0.085200
     65 H14         -1.9520    -2.5400    -4.0880 hc         1 3EO       0.085200
     66 H16         -0.8530    -2.5130     3.7990 hc         1 3EO       0.091950
     67 H17         -0.3610    -1.0650     1.8070 hc         1 3EO       0.091950
     68 H18          1.3280    -1.7570     1.7260 hc         1 3EO       0.091950
     69 H19          2.2040     0.4440    -2.3040 ha         1 3EO       0.127000
     70 H20          2.0540     4.8770    -0.4250 ha         1 3EO       0.121000
     71 H21          2.7080     5.8180     1.7450 ha         1 3EO       0.117000
     72 H22          0.2860    -5.4160     1.5630 hc         1 3EO       0.048367
     73 H23          0.5600    -4.4550     0.1000 hc         1 3EO       0.048367
     74 H24          1.6440    -4.2890     1.4840 hc         1 3EO       0.048367
     75 H25         -2.4310    -1.5100     0.1610 hn         1 3EO       0.353500
     76 H26         -3.2720     0.0540    -3.0500 hc         1 3EO       0.097700
     77 H27         -4.9870    -0.7580     0.2940 hc         1 3EO       0.059700
     78 H28         -4.3680     0.2920    -0.9660 hc         1 3EO       0.059700
     79 H29         -7.3180    -0.2650    -0.5230 hc         1 3EO       0.041700
     80 H30         -6.6580     0.8280    -1.7330 hc         1 3EO       0.041700
     81 H31         -3.3690     3.7640     1.9300 h1         1 3EO       0.046367
     82 H32         -4.7390     2.7050     2.3340 h1         1 3EO       0.046367
     83 H33         -3.1720     1.9810     1.9040 h1         1 3EO       0.046367
     84 H34         -0.2070     0.1810    -2.3790 hn         1 3EO       0.305500
     85 H38          5.9550    -3.8150     0.5530 hc         1 3EO       0.064700
     86 H39          3.7060    -5.8760     0.8340 hc         1 3EO       0.038367
     87 H40          5.3050    -5.9560     1.6060 hc         1 3EO       0.038367
     88 H41          4.1700    -4.6660     2.0500 hc         1 3EO       0.038367
     89 H42          6.1490    -4.5540    -1.8180 hc         1 3EO       0.038367
     90 H43          6.5250    -5.8610    -0.6780 hc         1 3EO       0.038367
     91 H44          4.9610    -5.8420    -1.5180 hc         1 3EO       0.038367
     92 H45          2.7770    -4.6090    -1.6770 h4         1 3EO       0.163000
     93 H47          3.9550     1.9020     3.0770 ha         1 3EO       0.154000
     94 H48          2.6000     6.0910     4.1370 h1         1 3EO       0.041367
     95 H49          4.0100     5.9210     5.2020 h1         1 3EO       0.041367
     96 H50          4.2410     6.4040     3.5090 h1         1 3EO       0.041367
     97 H15          0.8310    -3.2110     3.7110 hc         1 3EO       0.091950
     98 O28         -2.2990    -4.8450     0.7090 o          1 3EO      -0.526500
@<TRIPOS>BOND
     1     1     2 1   
     2     1    38 1   
     3     1    52 1   
     4     1    53 1   
     5     2     3 1   
     6     2    37 1   
     7     2    54 1   
     8     3     4 1   
     9     3    55 1   
    10     3    56 1   
    11     4     5 1   
    12     4    37 1   
    13     4    57 1   
    14     5    32 1   
    15     5    34 2   
    16     6    35 1   
    17     6    36 2   
    18     6    37 1   
    19     7     8 1   
    20     7    32 1   
    21     7    58 1   
    22     7    59 1   
    23     8    31 1   
    24     8    60 1   
    25     8    61 1   
    26     9    10 2   
    27     9    30 1   
    28     9    62 1   
    29    10    29 1   
    30    10    63 1   
    31    11    12 1   
    32    11    27 1   
    33    11    29 1   
    34    11    35 1   
    35    12    29 1   
    36    12    64 1   
    37    12    65 1   
    38    13    14 1   
    39    13    24 1   
    40    13    66 1   
    41    13    97 1   
    42    14    24 1   
    43    14    67 1   
    44    14    68 1   
    45    15    16 ar  
    46    15    17 ar  
    47    15    38 1   
    48    16    18 ar  
    49    16    20 ar  
    50    17    19 ar  
    51    17    69 1   
    52    18    47 ar  
    53    18    48 ar  
    54    19    39 1   
    55    19    47 ar  
    56    20    21 ar  
    57    20    70 1   
    58    21    49 ar  
    59    21    71 1   
    60    22    23 2   
    61    22    24 1   
    62    22    26 1   
    63    22    98 2   
    64    24    25 1   
    65    25    72 1   
    66    25    73 1   
    67    25    74 1   
    68    26    27 1   
    69    26    75 1   
    70    27    28 2   
    71    29    76 1   
    72    30    31 1   
    73    30    77 1   
    74    30    78 1   
    75    31    79 1   
    76    31    80 1   
    77    32    33 1   
    78    33    81 1   
    79    33    82 1   
    80    33    83 1   
    81    35    84 1   
    82    39    40 2   
    83    39    46 1   
    84    40    41 1   
    85    41    42 1   
    86    41    45 2   
    87    42    43 1   
    88    42    44 1   
    89    42    85 1   
    90    43    86 1   
    91    43    87 1   
    92    43    88 1   
    93    44    89 1   
    94    44    90 1   
    95    44    91 1   
    96    45    46 1   
    97    45    92 1   
    98    48    49 ar  
    99    48    93 1   
   100    49    50 1   
   101    50    51 1   
   102    51    94 1   
   103    51    95 1   
   104    51    96 1   
@<TRIPOS>SUBSTRUCTURE
     1 3EO         1 TEMP              0 ****  ****    0 ROOT
