@<TRIPOS>MOLECULE
3EP
   22    21     1     0     0
SMALL
No Charge or Current Charge


@<TRIPOS>ATOM
      1 P1           0.0390    -0.4810    -0.0210 p3         1 3EP      -0.532700
      2 C1           1.5610     0.4310     0.6050 c3         1 3EP       0.070500
      3 C2           2.8490     0.0840    -0.1610 c3         1 3EP      -0.083433
      4 C3          -1.3000     0.3050     1.0440 c3         1 3EP       0.070500
      5 C4          -1.2620    -0.1450     2.5150 c3         1 3EP      -0.083433
      6 C5          -0.2510     0.4080    -1.6550 c3         1 3EP       0.070500
      7 C6          -1.5260    -0.0460    -2.3880 c3         1 3EP      -0.083433
      8 H12          1.7100     0.1840     1.6640 hc         1 3EP       0.042200
      9 H11          1.3910     1.5140     0.5540 hc         1 3EP       0.042200
     10 H23          3.7070     0.6080     0.2770 hc         1 3EP       0.035367
     11 H22          3.0460    -0.9940    -0.1160 hc         1 3EP       0.035367
     12 H21          2.7710     0.3790    -1.2140 hc         1 3EP       0.035367
     13 H32         -1.2160     1.3980     0.9970 hc         1 3EP       0.042200
     14 H31         -2.2810     0.0440     0.6260 hc         1 3EP       0.042200
     15 H43         -2.0910     0.3080     3.0730 hc         1 3EP       0.035367
     16 H42         -1.3540    -1.2350     2.5880 hc         1 3EP       0.035367
     17 H41         -0.3240     0.1580     2.9940 hc         1 3EP       0.035367
     18 H52         -0.2980     1.4910    -1.4840 hc         1 3EP       0.042200
     19 H51          0.6090     0.2280    -2.3120 hc         1 3EP       0.042200
     20 H63         -1.6160     0.4710    -3.3510 hc         1 3EP       0.035367
     21 H62         -1.4980    -1.1250    -2.5790 hc         1 3EP       0.035367
     22 H61         -2.4200     0.1800    -1.7960 hc         1 3EP       0.035367
@<TRIPOS>BOND
     1     1     2 1   
     2     1     4 1   
     3     1     6 1   
     4     2     3 1   
     5     2     8 1   
     6     2     9 1   
     7     3    10 1   
     8     3    11 1   
     9     3    12 1   
    10     4     5 1   
    11     4    13 1   
    12     4    14 1   
    13     5    15 1   
    14     5    16 1   
    15     5    17 1   
    16     6     7 1   
    17     6    18 1   
    18     6    19 1   
    19     7    20 1   
    20     7    21 1   
    21     7    22 1   
@<TRIPOS>SUBSTRUCTURE
     1 3EP         1 TEMP              0 ****  ****    0 ROOT
