@<TRIPOS>MOLECULE
3EP
   22    21     1     0     0
SMALL
bcc


@<TRIPOS>ATOM
      1 P1           0.0320    -0.4350    -0.0260 p3         1 3EP      -0.532700
      2 C1           1.5350     0.4700     0.5730 c3         1 3EP       0.070500
      3 C2           2.8060     0.0300    -0.1450 c3         1 3EP      -0.083433
      4 C3          -1.2740     0.3390     1.0400 c3         1 3EP       0.070500
      5 C4          -1.2300    -0.1530     2.4820 c3         1 3EP      -0.083433
      6 C5          -0.2800     0.4670    -1.6180 c3         1 3EP       0.070500
      7 C6          -1.4890    -0.0710    -2.3740 c3         1 3EP      -0.083433
      8 H12          1.6340     0.2690     1.6430 hc         1 3EP       0.042200
      9 H11          1.3860     1.5490     0.4680 hc         1 3EP       0.042200
     10 H23          3.6770     0.5570     0.2480 hc         1 3EP       0.035367
     11 H22          2.9810    -1.0390    -0.0210 hc         1 3EP       0.035367
     12 H21          2.7600     0.2340    -1.2160 hc         1 3EP       0.035367
     13 H32         -1.1830     1.4290     1.0000 hc         1 3EP       0.042200
     14 H31         -2.2440     0.0880     0.6040 hc         1 3EP       0.042200
     15 H43         -2.0340     0.2940     3.0690 hc         1 3EP       0.035367
     16 H42         -1.3470    -1.2360     2.5370 hc         1 3EP       0.035367
     17 H41         -0.2900     0.1020     2.9740 hc         1 3EP       0.035367
     18 H52         -0.3980     1.5350    -1.4130 hc         1 3EP       0.042200
     19 H51          0.6130     0.3630    -2.2390 hc         1 3EP       0.042200
     20 H63         -1.6500     0.4870    -3.2970 hc         1 3EP       0.035367
     21 H62         -1.3560    -1.1200    -2.6420 hc         1 3EP       0.035367
     22 H61         -2.4060     0.0050    -1.7880 hc         1 3EP       0.035367
@<TRIPOS>BOND
     1     1     2 1   
     2     1     4 1   
     3     1     6 1   
     4     2     3 1   
     5     2     8 1   
     6     2     9 1   
     7     3    10 1   
     8     3    11 1   
     9     3    12 1   
    10     4     5 1   
    11     4    13 1   
    12     4    14 1   
    13     5    15 1   
    14     5    16 1   
    15     5    17 1   
    16     6     7 1   
    17     6    18 1   
    18     6    19 1   
    19     7    20 1   
    20     7    21 1   
    21     7    22 1   
@<TRIPOS>SUBSTRUCTURE
     1 3EP         1 TEMP              0 ****  ****    0 ROOT
