@<TRIPOS>MOLECULE
3EQ
   68    71     1     0     0
SMALL
No Charge or Current Charge


@<TRIPOS>ATOM
      1 C1           7.9470    -1.6660    -0.7640 c3         1 3EQ      -0.087100
      2 C2           6.6770    -1.1530    -1.4680 c3         1 3EQ      -0.071400
      3 C3           5.5550    -0.7640    -0.4810 c3         1 3EQ      -0.104400
      4 C4           4.2810    -0.2530    -1.1880 c3         1 3EQ       0.243800
      5 N5           3.1950     0.1270    -0.2710 nh         1 3EQ      -0.809300
      6 C6           2.3710    -0.8550     0.3280 ca         1 3EQ       0.236000
      7 C7           2.7530    -1.4030     1.5700 ca         1 3EQ      -0.093000
      8 C8           1.9590    -2.3600     2.2140 ca         1 3EQ      -0.123000
      9 C9           0.7610    -2.7770     1.6240 ca         1 3EQ      -0.091000
     10 C10          0.3450    -2.2610     0.3770 cp         1 3EQ      -0.036000
     11 C11          1.1740    -1.3140    -0.2950 ca         1 3EQ      -0.028300
     12 C12          0.7720    -0.8220    -1.6910 c3         1 3EQ      -0.054800
     13 C13         -0.9550    -2.7230    -0.1910 cp         1 3EQ      -0.061000
     14 C14         -1.1810    -4.0930    -0.4570 ca         1 3EQ      -0.089500
     15 C15         -2.4090    -4.5330    -0.9820 ca         1 3EQ      -0.110500
     16 C16         -3.4420    -3.6160    -1.2470 ca         1 3EQ      -0.076000
     17 S17         -4.9820    -4.2520    -1.9180 ss         1 3EQ      -0.223000
     18 C18         -6.0580    -2.7740    -2.2030 c3         1 3EQ       0.035900
     19 C19         -3.2350    -2.2480    -0.9720 ca         1 3EQ      -0.110500
     20 C20         -2.0060    -1.8110    -0.4470 ca         1 3EQ      -0.089500
     21 S21          3.2610     1.6560     0.4850 sy         1 3EQ       1.192600
     22 O22          3.8330     1.4580     1.8220 o          1 3EQ      -0.565000
     23 O23          3.8830     2.5920    -0.4590 o          1 3EQ      -0.565000
     24 C24          1.4880     2.0060     0.6300 ca         1 3EQ      -0.345500
     25 C25          0.9290     1.8660     1.9140 ca         1 3EQ       0.063000
     26 C26         -0.4320     2.0980     2.1340 ca         1 3EQ      -0.291000
     27 C27         -1.2700     2.4740     1.0710 ca         1 3EQ       0.249100
     28 O28         -2.6210     2.7040     1.2680 os         1 3EQ      -0.288100
     29 C29         -3.2610     2.5590     2.5590 c3         1 3EQ      -0.002400
     30 C30         -4.7850     2.8710     2.5220 c          1 3EQ       0.726000
     31 O31         -5.3090     3.2020     1.4650 o          1 3EQ      -0.707000
     32 O32         -5.4070     2.7720     3.5720 o          1 3EQ      -0.707000
     33 C33         -0.7330     2.6100    -0.2290 ca         1 3EQ      -0.105000
     34 C34         -1.5820     2.9720    -1.3010 ca         1 3EQ      -0.040000
     35 C35         -1.0780     3.0880    -2.6030 ca         1 3EQ      -0.157000
     36 C36          0.2740     2.8360    -2.8500 ca         1 3EQ      -0.079000
     37 C37          1.1270     2.4790    -1.7960 ca         1 3EQ      -0.156000
     38 C38          0.6500     2.3700    -0.4640 ca         1 3EQ       0.086000
     39 H1           7.7260    -2.5590    -0.1670 hc         1 3EQ       0.029700
     40 H1A          8.7140    -1.9290    -1.5030 hc         1 3EQ       0.029700
     41 H1B          8.3600    -0.8980    -0.0990 hc         1 3EQ       0.029700
     42 H2           6.9370    -0.2830    -2.0840 hc         1 3EQ       0.038200
     43 H2A          6.3080    -1.9290    -2.1500 hc         1 3EQ       0.038200
     44 H3           5.2990    -1.6370     0.1320 hc         1 3EQ       0.048200
     45 H3A          5.9270     0.0110     0.1990 hc         1 3EQ       0.048200
     46 H4           4.5460     0.5930    -1.8360 h1         1 3EQ       0.057200
     47 H4A          3.9190    -1.0440    -1.8590 h1         1 3EQ       0.057200
     48 H7           3.6800    -1.0890     2.0390 ha         1 3EQ       0.123000
     49 H8           2.2680    -2.7700     3.1720 ha         1 3EQ       0.111000
     50 H9           0.1390    -3.5060     2.1390 ha         1 3EQ       0.115000
     51 H12         -0.0400    -0.0910    -1.6330 hc         1 3EQ       0.054033
     52 H12A         1.5970    -0.3570    -2.2390 hc         1 3EQ       0.054033
     53 H12B         0.4210    -1.6540    -2.3120 hc         1 3EQ       0.054033
     54 H14         -0.3940    -4.8170    -0.2600 ha         1 3EQ       0.114000
     55 H15         -2.5580    -5.5910    -1.1850 ha         1 3EQ       0.134500
     56 H18         -5.5690    -2.0840    -2.9010 h1         1 3EQ       0.079700
     57 H18A        -7.0150    -3.0960    -2.6330 h1         1 3EQ       0.079700
     58 H18B        -6.2510    -2.2610    -1.2530 h1         1 3EQ       0.079700
     59 H19         -4.0110    -1.5110    -1.1530 ha         1 3EQ       0.134500
     60 H20         -1.8670    -0.7550    -0.2270 ha         1 3EQ       0.114000
     61 H25          1.5430     1.5700     2.7630 ha         1 3EQ       0.130000
     62 H26         -0.8180     1.9780     3.1410 ha         1 3EQ       0.130000
     63 H29         -3.1440     1.5320     2.9270 h1         1 3EQ       0.027200
     64 H29A        -2.8030     3.2400     3.2870 h1         1 3EQ       0.027200
     65 H34         -2.6410     3.1620    -1.1360 ha         1 3EQ       0.154000
     66 H35         -1.7400     3.3640    -3.4210 ha         1 3EQ       0.110000
     67 H36          0.6640     2.9080    -3.8630 ha         1 3EQ       0.101000
     68 H37          2.1550     2.2600    -2.0550 ha         1 3EQ       0.129000
@<TRIPOS>BOND
     1     1     2 1   
     2     1    39 1   
     3     1    40 1   
     4     1    41 1   
     5     2     3 1   
     6     2    42 1   
     7     2    43 1   
     8     3     4 1   
     9     3    44 1   
    10     3    45 1   
    11     4     5 1   
    12     4    46 1   
    13     4    47 1   
    14     5     6 1   
    15     5    21 1   
    16     6     7 ar  
    17     6    11 ar  
    18     7     8 ar  
    19     7    48 1   
    20     8     9 ar  
    21     8    49 1   
    22     9    10 ar  
    23     9    50 1   
    24    10    11 ar  
    25    10    13 1   
    26    11    12 1   
    27    12    51 1   
    28    12    52 1   
    29    12    53 1   
    30    13    14 ar  
    31    13    20 ar  
    32    14    15 ar  
    33    14    54 1   
    34    15    16 ar  
    35    15    55 1   
    36    16    17 1   
    37    16    19 ar  
    38    17    18 1   
    39    18    56 1   
    40    18    57 1   
    41    18    58 1   
    42    19    20 ar  
    43    19    59 1   
    44    20    60 1   
    45    21    22 2   
    46    21    23 2   
    47    21    24 1   
    48    24    25 ar  
    49    24    38 ar  
    50    25    26 ar  
    51    25    61 1   
    52    26    27 ar  
    53    26    62 1   
    54    27    28 1   
    55    27    33 ar  
    56    28    29 1   
    57    29    30 1   
    58    29    63 1   
    59    29    64 1   
    60    30    31 1   
    61    30    32 1   
    62    33    34 ar  
    63    33    38 ar  
    64    34    35 ar  
    65    34    65 1   
    66    35    36 ar  
    67    35    66 1   
    68    36    37 ar  
    69    36    67 1   
    70    37    38 ar  
    71    37    68 1   
@<TRIPOS>SUBSTRUCTURE
     1 3EQ         1 TEMP              0 ****  ****    0 ROOT
