@<TRIPOS>MOLECULE
3EQ
   68    71     1     0     0
SMALL
bcc


@<TRIPOS>ATOM
      1 C1           7.8030    -1.3640    -1.3740 c3         1 3EQ      -0.087100
      2 C2           6.4400    -0.8370    -1.7970 c3         1 3EQ      -0.071400
      3 C3           5.4750    -0.7050    -0.6240 c3         1 3EQ      -0.104400
      4 C4           4.1150    -0.1920    -1.0720 c3         1 3EQ       0.243800
      5 N5           3.1430    -0.0070     0.0070 nh         1 3EQ      -0.670900
      6 C6           2.4190    -1.1230     0.5190 ca         1 3EQ       0.097600
      7 C7           2.9800    -1.8930     1.5340 ca         1 3EQ      -0.111000
      8 C8           2.2840    -2.9660     2.0610 ca         1 3EQ      -0.141000
      9 C9           1.0060    -3.2410     1.5990 ca         1 3EQ      -0.109000
     10 C10          0.4300    -2.4740     0.5920 cp         1 3EQ      -0.036000
     11 C11          1.1530    -1.4240     0.0040 ca         1 3EQ      -0.028300
     12 C12          0.5900    -0.6900    -1.1770 c3         1 3EQ      -0.054800
     13 C13         -0.9680    -2.7480     0.1850 cp         1 3EQ      -0.061000
     14 C14         -1.3470    -3.9610    -0.3870 ca         1 3EQ      -0.107500
     15 C15         -2.6640    -4.1990    -0.7440 ca         1 3EQ      -0.128500
     16 C16         -3.6440    -3.2290    -0.5250 ca         1 3EQ       0.050900
     17 S17         -5.2880    -3.6320    -1.0060 ss         1 3EQ      -0.302000
     18 C18         -6.1870    -2.0830    -0.8020 c3         1 3EQ      -0.012000
     19 C19         -3.2800    -2.0210     0.0650 ca         1 3EQ      -0.128500
     20 C20         -1.9550    -1.7920     0.4060 ca         1 3EQ      -0.107500
     21 S21          3.1220     1.3670     0.9270 sy         1 3EQ       1.334200
     22 O22          3.3400     1.0360     2.3280 o          1 3EQ      -0.635800
     23 O23          4.0510     2.3070     0.3140 o          1 3EQ      -0.635800
     24 C24          1.4470     1.9170     0.7780 ca         1 3EQ      -0.345500
     25 C25          0.6040     1.5640     1.8000 ca         1 3EQ       0.045000
     26 C26         -0.7790     1.7670     1.7190 ca         1 3EQ      -0.309000
     27 C27         -1.3220     2.3180     0.5820 ca         1 3EQ       0.249100
     28 O28         -2.6220     2.4770     0.3700 os         1 3EQ      -0.264900
     29 C29         -3.5550     1.7960     1.1960 c3         1 3EQ      -0.025600
     30 C30         -4.9220     1.7050     0.4940 c          1 3EQ       0.936600
     31 O31         -5.1040     2.3890    -0.5210 o          1 3EQ      -0.812300
     32 O32         -5.7180     0.9350     1.0670 o          1 3EQ      -0.812300
     33 C33         -0.4700     2.7450    -0.4870 ca         1 3EQ      -0.105000
     34 C34         -1.0300     3.3260    -1.6450 ca         1 3EQ      -0.058000
     35 C35         -0.2350     3.7000    -2.6950 ca         1 3EQ      -0.175000
     36 C36          1.1520     3.4980    -2.6210 ca         1 3EQ      -0.097000
     37 C37          1.7220     2.9340    -1.5090 ca         1 3EQ      -0.174000
     38 C38          0.9340     2.5390    -0.4030 ca         1 3EQ       0.086000
     39 H1           7.7230    -2.3580    -0.9310 hc         1 3EQ       0.029700
     40 H1A          8.4830    -1.4360    -2.2240 hc         1 3EQ       0.029700
     41 H1B          8.2670    -0.7100    -0.6340 hc         1 3EQ       0.029700
     42 H2           6.5560     0.1380    -2.2800 hc         1 3EQ       0.038200
     43 H2A          6.0080    -1.5010    -2.5510 hc         1 3EQ       0.038200
     44 H3           5.3610    -1.6770    -0.1350 hc         1 3EQ       0.048200
     45 H3A          5.8950    -0.0240     0.1220 hc         1 3EQ       0.048200
     46 H4           4.2240     0.7480    -1.6140 h1         1 3EQ       0.057200
     47 H4A          3.6590    -0.8950    -1.7730 h1         1 3EQ       0.057200
     48 H7           3.9620    -1.6430     1.9120 ha         1 3EQ       0.141000
     49 H8           2.7240    -3.5690     2.8440 ha         1 3EQ       0.129000
     50 H9           0.4360    -4.0520     2.0370 ha         1 3EQ       0.133000
     51 H12         -0.1860     0.0200    -0.8950 hc         1 3EQ       0.054033
     52 H12A         1.3550    -0.1300    -1.7090 hc         1 3EQ       0.054033
     53 H12B         0.1340    -1.3900    -1.8760 hc         1 3EQ       0.054033
     54 H14         -0.6020    -4.7260    -0.5700 ha         1 3EQ       0.132000
     55 H15         -2.9280    -5.1440    -1.2020 ha         1 3EQ       0.152500
     56 H18         -5.7580    -1.2890    -1.4100 h1         1 3EQ       0.079700
     57 H18A        -7.1990    -2.2810    -1.1510 h1         1 3EQ       0.079700
     58 H18B        -6.2340    -1.7630     0.2360 h1         1 3EQ       0.079700
     59 H19         -4.0170    -1.2570     0.2750 ha         1 3EQ       0.152500
     60 H20         -1.6850    -0.8540     0.8750 ha         1 3EQ       0.132000
     61 H25          0.9910     1.0940     2.6930 ha         1 3EQ       0.148000
     62 H26         -1.3910     1.4680     2.5570 ha         1 3EQ       0.148000
     63 H29         -3.1960     0.7860     1.4190 h1         1 3EQ       0.027200
     64 H29A        -3.6640     2.3140     2.1560 h1         1 3EQ       0.027200
     65 H34         -2.1000     3.4680    -1.7040 ha         1 3EQ       0.172000
     66 H35         -0.6720     4.1440    -3.5790 ha         1 3EQ       0.128000
     67 H36          1.7830     3.7910    -3.4500 ha         1 3EQ       0.119000
     68 H37          2.7920     2.8070    -1.4880 ha         1 3EQ       0.147000
@<TRIPOS>BOND
     1     1     2 1   
     2     1    39 1   
     3     1    40 1   
     4     1    41 1   
     5     2     3 1   
     6     2    42 1   
     7     2    43 1   
     8     3     4 1   
     9     3    44 1   
    10     3    45 1   
    11     4     5 1   
    12     4    46 1   
    13     4    47 1   
    14     5     6 1   
    15     5    21 1   
    16     6     7 ar  
    17     6    11 ar  
    18     7     8 ar  
    19     7    48 1   
    20     8     9 ar  
    21     8    49 1   
    22     9    10 ar  
    23     9    50 1   
    24    10    11 ar  
    25    10    13 1   
    26    11    12 1   
    27    12    51 1   
    28    12    52 1   
    29    12    53 1   
    30    13    14 ar  
    31    13    20 ar  
    32    14    15 ar  
    33    14    54 1   
    34    15    16 ar  
    35    15    55 1   
    36    16    17 1   
    37    16    19 ar  
    38    17    18 1   
    39    18    56 1   
    40    18    57 1   
    41    18    58 1   
    42    19    20 ar  
    43    19    59 1   
    44    20    60 1   
    45    21    22 2   
    46    21    23 2   
    47    21    24 1   
    48    24    25 ar  
    49    24    38 ar  
    50    25    26 ar  
    51    25    61 1   
    52    26    27 ar  
    53    26    62 1   
    54    27    28 1   
    55    27    33 ar  
    56    28    29 1   
    57    29    30 1   
    58    29    63 1   
    59    29    64 1   
    60    30    31 1   
    61    30    32 1   
    62    33    34 ar  
    63    33    38 ar  
    64    34    35 ar  
    65    34    65 1   
    66    35    36 ar  
    67    35    66 1   
    68    36    37 ar  
    69    36    67 1   
    70    37    38 ar  
    71    37    68 1   
@<TRIPOS>SUBSTRUCTURE
     1 3EQ         1 TEMP              0 ****  ****    0 ROOT
