@<TRIPOS>MOLECULE
3ER
   25    25     1     0     0
SMALL
abcg2


@<TRIPOS>ATOM
      1 C1          -1.2200     1.4140    -1.3560 ca         1 3ER      -0.082000
      2 C2          -2.4540     1.1280    -1.9200 ca         1 3ER      -0.114000
      3 C3          -3.2140     0.0630    -1.4550 ca         1 3ER      -0.129000
      4 C13          3.6960    -0.0860    -0.3940 c3         1 3ER      -0.390100
      5 C4          -2.7010    -0.7070    -0.4230 ca         1 3ER       0.120000
      6 C5          -1.4680    -0.4390     0.1460 ca         1 3ER      -0.078000
      7 C6          -0.7180     0.6360    -0.3180 ca         1 3ER      -0.005300
      8 C7           0.5960     0.9960     0.3200 c3         1 3ER       0.080800
      9 N8           1.2730    -0.1460     0.8990 n7         1 3ER      -0.852300
     10 C9           0.3880     2.0600     1.4570 c          1 3ER       0.728000
     11 O11          0.9820     1.8340     2.5270 o          1 3ER      -0.695000
     12 S12          2.2660    -1.0760    -0.0070 s6         1 3ER       1.195100
     13 O14          1.5770    -1.3670    -1.2560 o          1 3ER      -0.561000
     14 O15          2.7030    -2.1750     0.8420 o          1 3ER      -0.561000
     15 CL1         -3.6280    -2.0530     0.1700 cl         1 3ER      -0.252000
     16 H1          -0.6360     2.2420    -1.7360 ha         1 3ER       0.115000
     17 H2          -2.8330     1.7350    -2.7310 ha         1 3ER       0.097000
     18 H3          -4.1770    -0.1650    -1.8920 ha         1 3ER       0.107000
     19 H4           4.1920     0.2000     0.5310 h1         1 3ER       0.090700
     20 H5           4.3670    -0.6840    -1.0080 h1         1 3ER       0.090700
     21 H6           3.3920     0.8010    -0.9460 h1         1 3ER       0.090700
     22 H17         -1.0850    -1.0620     0.9430 ha         1 3ER       0.138000
     23 H18          1.2170     1.4990    -0.4340 h1         1 3ER       0.037700
     24 H19          1.6280     0.0820     1.8290 hn         1 3ER       0.526000
     25 OXT         -0.3240     3.0250     1.1600 o          1 3ER      -0.695000
@<TRIPOS>BOND
     1     1     2 ar  
     2     1     7 ar  
     3     1    16 1   
     4     2     3 ar  
     5     2    17 1   
     6     3     5 ar  
     7     3    18 1   
     8     4    12 1   
     9     4    19 1   
    10     4    20 1   
    11     4    21 1   
    12     5     6 ar  
    13     5    15 1   
    14     6     7 ar  
    15     6    22 1   
    16     7     8 1   
    17     8     9 1   
    18     8    10 1   
    19     8    23 1   
    20     9    12 1   
    21     9    24 1   
    22    10    11 1   
    23    10    25 1   
    24    12    13 2   
    25    12    14 2   
@<TRIPOS>SUBSTRUCTURE
     1 3ER         1 TEMP              0 ****  ****    0 ROOT
