@<TRIPOS>MOLECULE
3ER
   25    25     1     0     0
SMALL
No Charge or Current Charge


@<TRIPOS>ATOM
      1 C1          -1.0160     1.1770    -1.4900 ca         1 3ER      -0.082000
      2 C2          -2.2200     0.8690    -2.1490 ca         1 3ER      -0.114000
      3 C3          -3.1520     0.0090    -1.5430 ca         1 3ER      -0.129000
      4 C13          3.6270     0.0950    -0.4470 c3         1 3ER      -0.390100
      5 C4          -2.8770    -0.5420    -0.2820 ca         1 3ER       0.120000
      6 C5          -1.6750    -0.2360     0.3770 ca         1 3ER      -0.078000
      7 C6          -0.7350     0.6270    -0.2220 ca         1 3ER      -0.005300
      8 C7           0.5760     0.9630     0.4940 c3         1 3ER       0.080800
      9 N8           1.3090    -0.2970     0.8700 n7         1 3ER      -0.852300
     10 C9           0.3350     1.9360     1.7140 c          1 3ER       0.728000
     11 O11          1.0710     1.8210     2.6890 o          1 3ER      -0.695000
     12 S12          2.2870    -1.0650    -0.2350 s6         1 3ER       1.195100
     13 O14          1.5290    -1.1730    -1.4840 o          1 3ER      -0.561000
     14 O15          2.7790    -2.2690     0.4350 o          1 3ER      -0.561000
     15 Cl1         -4.0430    -1.6210     0.4750 cl         1 3ER      -0.252000
     16 H1          -0.3010     1.8430    -1.9670 ha         1 3ER       0.115000
     17 H2          -2.4300     1.2970    -3.1260 ha         1 3ER       0.097000
     18 H3          -4.0830    -0.2300    -2.0500 ha         1 3ER       0.107000
     19 H4           4.0880     0.2720     0.5300 h1         1 3ER       0.090700
     20 H5           4.3440    -0.3630    -1.1360 h1         1 3ER       0.090700
     21 H6           3.2210     1.0180    -0.8730 h1         1 3ER       0.090700
     22 H17         -1.4710    -0.6700     1.3520 ha         1 3ER       0.138000
     23 H18          1.1960     1.5520    -0.1930 h1         1 3ER       0.037700
     24 H19          2.0090    -0.0390     1.5670 hn         1 3ER       0.526000
     25 OXT         -0.5500     2.7800     1.6400 o          1 3ER      -0.695000
@<TRIPOS>BOND
     1     1     2 ar  
     2     1     7 ar  
     3     1    16 1   
     4     2     3 ar  
     5     2    17 1   
     6     3     5 ar  
     7     3    18 1   
     8     4    12 1   
     9     4    19 1   
    10     4    20 1   
    11     4    21 1   
    12     5     6 ar  
    13     5    15 1   
    14     6     7 ar  
    15     6    22 1   
    16     7     8 1   
    17     8     9 1   
    18     8    10 1   
    19     8    23 1   
    20     9    12 1   
    21     9    24 1   
    22    10    11 1   
    23    10    25 1   
    24    12    13 2   
    25    12    14 2   
@<TRIPOS>SUBSTRUCTURE
     1 3ER         1 TEMP              0 ****  ****    0 ROOT
