@<TRIPOS>MOLECULE
3ES
   87    91     1     0     0
SMALL
No Charge or Current Charge


@<TRIPOS>ATOM
      1 CBM         -3.9600     2.1960     0.6320 c          1 3ES       0.650100
      2 OAB         -3.1630     2.8560     1.2810 o          1 3ES      -0.547000
      3 OBJ         -5.1240     2.6550     0.0970 os         1 3ES      -0.464100
      4 CBB         -5.4410     4.0420     0.2930 c3         1 3ES       0.229900
      5 CBP         -6.7760     4.3330    -0.3810 ca         1 3ES      -0.077300
      6 CAQ         -7.9810     4.1830     0.3340 ca         1 3ES      -0.082500
      7 CAK         -9.2130     4.4530    -0.2880 ca         1 3ES      -0.126000
      8 CAH         -9.2470     4.8730    -1.6280 ca         1 3ES      -0.120000
      9 CAL         -8.0490     5.0220    -2.3470 ca         1 3ES      -0.126000
     10 CAR         -6.8170     4.7520    -1.7260 ca         1 3ES      -0.082500
     11 PBY         -1.2910    -0.0360    -0.5090 p5         1 3ES       1.345000
     12 OAG         -1.3140     1.2050    -1.3430 o          1 3ES      -0.795500
     13 CBX         -2.6880    -0.0020     0.7470 c3         1 3ES      -0.226300
     14 NBI         -3.8420     0.8570     0.3540 ns         1 3ES      -0.451900
     15 CBE         -3.1890    -1.4010     1.1850 c3         1 3ES      -0.012100
     16 CBQ         -2.1490    -2.2130     1.9480 ca         1 3ES      -0.066300
     17 CAS         -1.6910    -1.7740     3.2070 ca         1 3ES      -0.100500
     18 CAM         -0.7410    -2.5270     3.9180 ca         1 3ES      -0.118500
     19 CAI         -0.2500    -3.7270     3.3810 ca         1 3ES      -0.124000
     20 CAN         -0.7040    -4.1720     2.1290 ca         1 3ES      -0.118500
     21 CAT         -1.6490    -3.4170     1.4130 ca         1 3ES      -0.100500
     22 CBC          2.8110    -0.2180     0.6780 c3         1 3ES      -0.115700
     23 CBS          2.9000    -1.5650     1.3470 cc         1 3ES       0.196300
     24 CBA          2.5120    -2.8060     0.9550 cd         1 3ES      -0.235000
     25 OBK          3.5070    -1.6680     2.5740 os         1 3ES      -0.086700
     26 NBG          3.5000    -3.0550     2.9740 nc         1 3ES      -0.416300
     27 CBU          2.9020    -3.6920     1.9780 cd         1 3ES       0.317500
     28 CBT          2.7000    -5.1590     1.9970 ca         1 3ES      -0.119500
     29 CAU          2.9110    -5.9040     3.1810 ca         1 3ES      -0.083000
     30 CAO          2.7300    -7.2980     3.1940 ca         1 3ES      -0.128500
     31 CAJ          2.3460    -7.9700     2.0240 ca         1 3ES      -0.120000
     32 CAP          2.1490    -7.2460     0.8380 ca         1 3ES      -0.128500
     33 CAV          2.3290    -5.8520     0.8220 ca         1 3ES      -0.083000
     34 CBV          1.5920    -0.0250    -0.2660 c3         1 3ES      -0.096700
     35 CBN          1.7790     1.2670    -1.1120 c          1 3ES       0.612100
     36 OAC          1.8520     2.3820    -0.6080 o          1 3ES      -0.663100
     37 N            1.8860     1.0620    -2.4730 ns         1 3ES      -0.451900
     38 CA           2.2210     2.1040    -3.4760 c3         1 3ES      -0.032300
     39 C            1.3390     1.9470    -4.7510 c          1 3ES       0.720000
     40 O            1.2050     0.8310    -5.2360 o          1 3ES      -0.726000
     41 CB           3.7290     2.0860    -3.8360 c3         1 3ES      -0.037100
     42 CG           4.6500     2.1520    -2.6210 ca         1 3ES      -0.064300
     43 CD1          5.3310     0.9990    -2.1810 ca         1 3ES      -0.069000
     44 CD2          4.8240     3.3650    -1.9280 ca         1 3ES      -0.069000
     45 CE1          6.1740     1.0610    -1.0570 ca         1 3ES      -0.178000
     46 CE2          5.6680     3.4250    -0.8040 ca         1 3ES      -0.178000
     47 CZ           6.3410     2.2720    -0.3700 ca         1 3ES       0.101100
     48 OH           7.1580     2.3260     0.7180 oh         1 3ES      -0.554100
     49 OXT          0.7630     2.9380    -5.1810 o          1 3ES      -0.726000
     50 HBB1        -4.6630     4.6840    -0.1420 h1         1 3ES       0.054200
     51 HBB2        -5.5130     4.2780     1.3630 h1         1 3ES       0.054200
     52 HAQ         -7.9630     3.8550     1.3710 ha         1 3ES       0.125000
     53 HAK        -10.1400     4.3350     0.2680 ha         1 3ES       0.101500
     54 HAH        -10.2000     5.0820    -2.1090 ha         1 3ES       0.093000
     55 HAL         -8.0750     5.3450    -3.3850 ha         1 3ES       0.101500
     56 HAR         -5.8940     4.8670    -2.2900 ha         1 3ES       0.125000
     57 HBX         -2.2140     0.4700     1.6150 h1         1 3ES       0.077700
     58 HBI         -4.5920     0.4620    -0.2020 hn         1 3ES       0.308500
     59 HBE1        -4.0660    -1.2720     1.8320 hc         1 3ES       0.039200
     60 HBE2        -3.5460    -1.9500     0.3050 hc         1 3ES       0.039200
     61 HAS         -2.0730    -0.8510     3.6350 ha         1 3ES       0.120500
     62 HAM         -0.3900    -2.1820     4.8880 ha         1 3ES       0.101000
     63 HAI          0.4800    -4.3130     3.9350 ha         1 3ES       0.096000
     64 HAN         -0.3280    -5.1040     1.7140 ha         1 3ES       0.101000
     65 HAT         -1.9930    -3.7690     0.4430 ha         1 3ES       0.120500
     66 HBC1         3.7300    -0.0660     0.1000 hc         1 3ES       0.071200
     67 HBC2         2.8010     0.5690     1.4410 hc         1 3ES       0.071200
     68 HBV          1.5830    -0.8690    -0.9670 hc         1 3ES       0.063700
     69 HBA          2.0040    -3.0540     0.0330 ha         1 3ES       0.213000
     70 HAU          3.2080    -5.4050     4.1020 ha         1 3ES       0.142000
     71 HAV          2.1780    -5.3190    -0.1140 ha         1 3ES       0.142000
     72 HAO          2.8880    -7.8570     4.1140 ha         1 3ES       0.103000
     73 HAJ          2.2070    -9.0480     2.0340 ha         1 3ES       0.094000
     74 HAP          1.8590    -7.7660    -0.0720 ha         1 3ES       0.103000
     75 HBF1         0.1750     0.7990     1.1970 hc         1 3ES       0.060700
     76 HBF2         0.1780    -0.9650     1.1240 hc         1 3ES       0.060700
     77 H            1.7640     0.1120    -2.8020 hn         1 3ES       0.342500
     78 HA           1.9840     3.0850    -3.0460 h1         1 3ES       0.065700
     79 HB1C         3.9440     1.1810    -4.4180 hc         1 3ES       0.045700
     80 HB2C         3.9400     2.9290    -4.5060 hc         1 3ES       0.045700
     81 HD1          5.2050     0.0550    -2.7050 ha         1 3ES       0.114000
     82 HD2          4.3010     4.2600    -2.2570 ha         1 3ES       0.114000
     83 HE1          6.6950     0.1680    -0.7210 ha         1 3ES       0.100500
     84 HE2          5.7910     4.3680    -0.2760 ha         1 3ES       0.100500
     85 HH           7.1500     3.2430     1.0650 ho         1 3ES       0.446000
     86 OAD         -1.3390    -1.2770    -1.3430 o          1 3ES      -0.795500
     87 CBF          0.2400    -0.0570     0.5180 c3         1 3ES      -0.434400
@<TRIPOS>BOND
     1     1     2 2   
     2     1     3 1   
     3     1    14 1   
     4     3     4 1   
     5     4     5 1   
     6     4    50 1   
     7     4    51 1   
     8     5     6 ar  
     9     5    10 ar  
    10     6     7 ar  
    11     6    52 1   
    12     7     8 ar  
    13     7    53 1   
    14     8     9 ar  
    15     8    54 1   
    16     9    10 ar  
    17     9    55 1   
    18    10    56 1   
    19    11    12 1   
    20    11    13 1   
    21    11    86 1   
    22    11    87 1   
    23    13    14 1   
    24    13    15 1   
    25    13    57 1   
    26    14    58 1   
    27    15    16 1   
    28    15    59 1   
    29    15    60 1   
    30    16    17 ar  
    31    16    21 ar  
    32    17    18 ar  
    33    17    61 1   
    34    18    19 ar  
    35    18    62 1   
    36    19    20 ar  
    37    19    63 1   
    38    20    21 ar  
    39    20    64 1   
    40    21    65 1   
    41    22    23 1   
    42    22    34 1   
    43    22    66 1   
    44    22    67 1   
    45    23    24 2   
    46    23    25 1   
    47    24    27 1   
    48    24    69 1   
    49    25    26 1   
    50    26    27 2   
    51    27    28 1   
    52    28    29 ar  
    53    28    33 ar  
    54    29    30 ar  
    55    29    70 1   
    56    30    31 ar  
    57    30    72 1   
    58    31    32 ar  
    59    31    73 1   
    60    32    33 ar  
    61    32    74 1   
    62    33    71 1   
    63    34    35 1   
    64    34    68 1   
    65    34    87 1   
    66    35    36 2   
    67    35    37 1   
    68    37    38 1   
    69    37    77 1   
    70    38    39 1   
    71    38    41 1   
    72    38    78 1   
    73    39    40 1   
    74    39    49 1   
    75    41    42 1   
    76    41    79 1   
    77    41    80 1   
    78    42    43 ar  
    79    42    44 ar  
    80    43    45 ar  
    81    43    81 1   
    82    44    46 ar  
    83    44    82 1   
    84    45    47 ar  
    85    45    83 1   
    86    46    47 ar  
    87    46    84 1   
    88    47    48 1   
    89    48    85 1   
    90    75    87 1   
    91    76    87 1   
@<TRIPOS>SUBSTRUCTURE
     1 3ES         1 TEMP              0 ****  ****    0 ROOT
