@<TRIPOS>MOLECULE
3ES
   87    91     1     0     0
SMALL
abcg2


@<TRIPOS>ATOM
      1 CBM         -3.7780     1.9580     0.8510 c          1 3ES       0.650100
      2 OAB         -3.1750     2.9050     1.3110 o          1 3ES      -0.547000
      3 OBJ         -4.8170     2.0790     0.0110 os         1 3ES      -0.464100
      4 CBB         -5.2270     3.4070    -0.3250 c3         1 3ES       0.229900
      5 CBP         -6.3860     3.2800    -1.2660 ca         1 3ES      -0.077300
      6 CAQ         -7.6670     3.0430    -0.7750 ca         1 3ES      -0.082500
      7 CAK         -8.7400     2.8980    -1.6440 ca         1 3ES      -0.126000
      8 CAH         -8.5390     2.9890    -3.0160 ca         1 3ES      -0.120000
      9 CAL         -7.2650     3.2260    -3.5140 ca         1 3ES      -0.126000
     10 CAR         -6.1940     3.3680    -2.6410 ca         1 3ES      -0.082500
     11 PBY         -1.1310    -0.1140     0.2710 p5         1 3ES       1.345000
     12 OAG         -1.3430     0.9990    -0.7330 o          1 3ES      -0.795500
     13 CBX         -2.2940     0.2140     1.7020 c3         1 3ES      -0.226300
     14 NBI         -3.5590     0.6620     1.1500 ns         1 3ES      -0.451900
     15 CBE         -2.5410    -0.9900     2.6110 c3         1 3ES      -0.012100
     16 CBQ         -1.3030    -1.4620     3.3200 ca         1 3ES      -0.066300
     17 CAS         -0.7210    -0.6750     4.3130 ca         1 3ES      -0.100500
     18 CAM          0.4370    -1.0830     4.9590 ca         1 3ES      -0.118500
     19 CAI          1.0280    -2.2960     4.6280 ca         1 3ES      -0.124000
     20 CAN          0.4520    -3.0920     3.6490 ca         1 3ES      -0.118500
     21 CAT         -0.7000    -2.6740     2.9960 ca         1 3ES      -0.100500
     22 CBC          2.9250    -0.5530     0.3040 c3         1 3ES      -0.115700
     23 CBS          2.7790    -2.0130     0.5360 cc         1 3ES       0.196300
     24 CBA          1.7320    -2.8580     0.4010 cd         1 3ES      -0.235000
     25 OBK          3.8490    -2.7030     0.9520 os         1 3ES      -0.086700
     26 NBG          3.5220    -4.0160     1.1030 nc         1 3ES      -0.416300
     27 CBU          2.2600    -4.1170     0.7800 cd         1 3ES       0.317500
     28 CBT          1.5480    -5.3960     0.8490 ca         1 3ES      -0.119500
     29 CAU          2.1810    -6.5520     1.3090 ca         1 3ES      -0.083000
     30 CAO          1.4900    -7.7510     1.3750 ca         1 3ES      -0.128500
     31 CAJ          0.1570    -7.8130     0.9870 ca         1 3ES      -0.120000
     32 CAP         -0.4800    -6.6680     0.5300 ca         1 3ES      -0.128500
     33 CAV          0.2100    -5.4660     0.4610 ca         1 3ES      -0.083000
     34 CBV          1.5950     0.0610    -0.1530 c3         1 3ES      -0.096700
     35 CBN          1.8730     1.4680    -0.6600 c          1 3ES       0.612100
     36 OAC          2.2480     2.3480     0.1060 o          1 3ES      -0.663100
     37 N            1.7350     1.6370    -1.9800 ns         1 3ES      -0.451900
     38 CA           1.9370     2.8870    -2.6680 c3         1 3ES      -0.032300
     39 C            0.8660     3.0850    -3.7660 c          1 3ES       0.720000
     40 O            0.2420     2.0740    -4.1410 o          1 3ES      -0.726000
     41 CB           3.3260     2.9470    -3.3360 c3         1 3ES      -0.037100
     42 CG           4.4530     2.6210    -2.4010 ca         1 3ES      -0.064300
     43 CD1          4.9960     1.3410    -2.3530 ca         1 3ES      -0.069000
     44 CD2          4.9650     3.5700    -1.5240 ca         1 3ES      -0.069000
     45 CE1          6.0100     1.0100    -1.4660 ca         1 3ES      -0.178000
     46 CE2          5.9800     3.2620    -0.6310 ca         1 3ES      -0.178000
     47 CZ           6.5070     1.9730    -0.5950 ca         1 3ES       0.101100
     48 OH           7.4950     1.6130     0.2540 oh         1 3ES      -0.554100
     49 OXT          0.7650     4.2430    -4.2110 o          1 3ES      -0.726000
     50 HBB1        -4.4050     3.9500    -0.7960 h1         1 3ES       0.054200
     51 HBB2        -5.5200     3.9510     0.5760 h1         1 3ES       0.054200
     52 HAQ         -7.8280     2.9770     0.2940 ha         1 3ES       0.125000
     53 HAK         -9.7320     2.7170    -1.2510 ha         1 3ES       0.101500
     54 HAH         -9.3750     2.8800    -3.6950 ha         1 3ES       0.093000
     55 HAL         -7.1040     3.2990    -4.5820 ha         1 3ES       0.101500
     56 HAR         -5.2010     3.5560    -3.0340 ha         1 3ES       0.125000
     57 HBX         -1.8830     1.0350     2.2930 h1         1 3ES       0.077700
     58 HBI         -4.0670    -0.0170     0.6020 hn         1 3ES       0.308500
     59 HBE1        -3.2990    -0.7130     3.3510 hc         1 3ES       0.039200
     60 HBE2        -2.9600    -1.8060     2.0180 hc         1 3ES       0.039200
     61 HAS         -1.1780     0.2710     4.5810 ha         1 3ES       0.120500
     62 HAM          0.8760    -0.4560     5.7240 ha         1 3ES       0.101000
     63 HAI          1.9310    -2.6180     5.1330 ha         1 3ES       0.096000
     64 HAN          0.9050    -4.0400     3.3860 ha         1 3ES       0.101000
     65 HAT         -1.1270    -3.2890     2.2140 ha         1 3ES       0.120500
     66 HBC1         3.6930    -0.3890    -0.4590 hc         1 3ES       0.071200
     67 HBC2         3.2780    -0.0560     1.2120 hc         1 3ES       0.071200
     68 HBV          1.2340    -0.5490    -0.9880 hc         1 3ES       0.063700
     69 HBA          0.7200    -2.6030     0.1220 ha         1 3ES       0.213000
     70 HAU          3.2180    -6.5140     1.6170 ha         1 3ES       0.142000
     71 HAV         -0.3000    -4.5820     0.1000 ha         1 3ES       0.142000
     72 HAO          1.9920    -8.6400     1.7320 ha         1 3ES       0.103000
     73 HAJ         -0.3810    -8.7510     1.0380 ha         1 3ES       0.094000
     74 HAP         -1.5180    -6.7080     0.2260 ha         1 3ES       0.103000
     75 HBF1         0.6290     0.9990     1.5460 hc         1 3ES       0.060700
     76 HBF2         0.7350    -0.7390     1.6830 hc         1 3ES       0.060700
     77 H            1.2180     0.9460    -2.5030 hn         1 3ES       0.342500
     78 HA           1.8650     3.7000    -1.9430 h1         1 3ES       0.065700
     79 HB1C         3.3390     2.2440    -4.1760 hc         1 3ES       0.045700
     80 HB2C         3.4540     3.9460    -3.7570 hc         1 3ES       0.045700
     81 HD1          4.6190     0.5780    -3.0250 ha         1 3ES       0.114000
     82 HD2          4.5670     4.5790    -1.5310 ha         1 3ES       0.114000
     83 HE1          6.4150     0.0050    -1.4490 ha         1 3ES       0.100500
     84 HE2          6.3620     4.0260     0.0370 ha         1 3ES       0.100500
     85 HH           7.7450     2.3590     0.8090 ho         1 3ES       0.446000
     86 OAD         -1.3290    -1.5530    -0.1840 o          1 3ES      -0.795500
     87 CBF          0.5530     0.0710     0.9750 c3         1 3ES      -0.434400
@<TRIPOS>BOND
     1     1     2 2   
     2     1     3 1   
     3     1    14 1   
     4     3     4 1   
     5     4     5 1   
     6     4    50 1   
     7     4    51 1   
     8     5     6 ar  
     9     5    10 ar  
    10     6     7 ar  
    11     6    52 1   
    12     7     8 ar  
    13     7    53 1   
    14     8     9 ar  
    15     8    54 1   
    16     9    10 ar  
    17     9    55 1   
    18    10    56 1   
    19    11    12 1   
    20    11    13 1   
    21    11    86 1   
    22    11    87 1   
    23    13    14 1   
    24    13    15 1   
    25    13    57 1   
    26    14    58 1   
    27    15    16 1   
    28    15    59 1   
    29    15    60 1   
    30    16    17 ar  
    31    16    21 ar  
    32    17    18 ar  
    33    17    61 1   
    34    18    19 ar  
    35    18    62 1   
    36    19    20 ar  
    37    19    63 1   
    38    20    21 ar  
    39    20    64 1   
    40    21    65 1   
    41    22    23 1   
    42    22    34 1   
    43    22    66 1   
    44    22    67 1   
    45    23    24 2   
    46    23    25 1   
    47    24    27 1   
    48    24    69 1   
    49    25    26 1   
    50    26    27 2   
    51    27    28 1   
    52    28    29 ar  
    53    28    33 ar  
    54    29    30 ar  
    55    29    70 1   
    56    30    31 ar  
    57    30    72 1   
    58    31    32 ar  
    59    31    73 1   
    60    32    33 ar  
    61    32    74 1   
    62    33    71 1   
    63    34    35 1   
    64    34    68 1   
    65    34    87 1   
    66    35    36 2   
    67    35    37 1   
    68    37    38 1   
    69    37    77 1   
    70    38    39 1   
    71    38    41 1   
    72    38    78 1   
    73    39    40 1   
    74    39    49 1   
    75    41    42 1   
    76    41    79 1   
    77    41    80 1   
    78    42    43 ar  
    79    42    44 ar  
    80    43    45 ar  
    81    43    81 1   
    82    44    46 ar  
    83    44    82 1   
    84    45    47 ar  
    85    45    83 1   
    86    46    47 ar  
    87    46    84 1   
    88    47    48 1   
    89    48    85 1   
    90    75    87 1   
    91    76    87 1   
@<TRIPOS>SUBSTRUCTURE
     1 3ES         1 TEMP              0 ****  ****    0 ROOT
