@<TRIPOS>MOLECULE
3ET
   49    49     1     0     0
SMALL
abcg2


@<TRIPOS>ATOM
      1 O35          4.8750    -0.3890     1.4740 o          1 3ET      -0.482000
      2 C34          4.8310     0.3430     0.5190 c          1 3ET       0.545100
      3 C36          5.6280     1.6380     0.3840 c3         1 3ET       0.111500
      4 C38          4.6600     2.8200     0.4570 c3         1 3ET       0.171600
      5 O39          5.3740     4.0000     0.1900 oh         1 3ET      -0.647000
      6 N37          6.6810     1.7720     1.3590 n8         1 3ET      -0.977200
      7 O33          4.0760     0.1160    -0.5480 os         1 3ET      -0.433100
      8 C32          3.2410    -1.0410    -0.5380 c3         1 3ET       0.169600
      9 C22          2.4940    -1.0650    -1.8680 c3         1 3ET       0.104500
     10 N1           3.4160    -1.1830    -2.9660 n8         1 3ET      -0.986200
     11 C25          1.4400    -2.1710    -1.8230 c          1 3ET       0.554100
     12 O10          1.4490    -3.1480    -2.5240 o          1 3ET      -0.512000
     13 O15          0.5070    -1.9180    -0.9180 os         1 3ET      -0.430100
     14 C30         -0.5690    -2.8550    -0.7580 c3         1 3ET       0.173600
     15 C24         -1.4950    -2.2930     0.2970 c3         1 3ET      -0.066300
     16 C27         -0.7830    -2.1620     1.6790 c          1 3ET       0.725000
     17 O14         -0.8540    -1.0660     2.2520 o          1 3ET      -0.705500
     18 O12         -0.2270    -3.2030     2.0700 o          1 3ET      -0.705500
     19 N3          -2.0650    -1.0490    -0.1630 ns         1 3ET      -0.420900
     20 C21         -3.2050    -0.5630     0.3230 c          1 3ET       0.624700
     21 O9          -3.9450    -1.2500     1.0480 o          1 3ET      -0.659100
     22 C18         -3.6060     0.8170    -0.0520 ca         1 3ET      -0.205600
     23 C3          -4.8160     1.3000     0.4640 ca         1 3ET       0.134100
     24 O3          -5.6190     0.5860     1.2580 oh         1 3ET      -0.601100
     25 C6          -5.2440     2.6030     0.1520 ca         1 3ET       0.080100
     26 O6          -6.4040     3.0790     0.6470 oh         1 3ET      -0.550100
     27 C9          -4.4730     3.4010    -0.6680 ca         1 3ET      -0.110000
     28 C12         -3.2710     2.9210    -1.1870 ca         1 3ET      -0.144000
     29 C15         -2.8420     1.6480    -0.8830 ca         1 3ET      -0.074000
     30 H36          6.0780     1.6360    -0.6150 h1         1 3ET       0.093700
     31 H38          3.8490     2.6680    -0.2640 h1         1 3ET       0.032700
     32 H38A         4.2010     2.8400     1.4560 h1         1 3ET       0.032700
     33 HO39         4.7560     4.7350     0.2350 ho         1 3ET       0.438000
     34 HN37         6.3040     1.6960     2.2960 hn         1 3ET       0.407000
     35 HN3A         7.3460     1.0160     1.2590 hn         1 3ET       0.407000
     36 H32          3.8480    -1.9440    -0.4300 h1         1 3ET       0.076700
     37 H32A         2.5480    -0.9920     0.3030 h1         1 3ET       0.076700
     38 H22          1.9510    -0.1180    -1.9660 h1         1 3ET       0.090700
     39 HN1          3.8450    -2.1010    -2.9710 hn         1 3ET       0.406000
     40 HN1A         2.9260    -1.0940    -3.8460 hn         1 3ET       0.406000
     41 H30         -1.0890    -2.9850    -1.7100 h1         1 3ET       0.052200
     42 H30A        -0.1840    -3.8210    -0.4330 h1         1 3ET       0.052200
     43 H24         -2.3020    -3.0220     0.4080 h1         1 3ET       0.081700
     44 HN3         -1.4400    -0.4160    -0.6340 hn         1 3ET       0.308500
     45 HO3         -5.1710    -0.3000     1.3670 ho         1 3ET       0.544000
     46 HO6         -6.8260     2.4140     1.2040 ho         1 3ET       0.482000
     47 H9          -4.8110     4.4030    -0.9040 ha         1 3ET       0.116000
     48 H12         -2.6770     3.5540    -1.8320 ha         1 3ET       0.106000
     49 H15         -1.9070     1.3110    -1.3090 ha         1 3ET       0.109000
@<TRIPOS>BOND
     1     1     2 2   
     2     2     3 1   
     3     2     7 1   
     4     3     4 1   
     5     3     6 1   
     6     3    30 1   
     7     4     5 1   
     8     4    31 1   
     9     4    32 1   
    10     5    33 1   
    11     6    34 1   
    12     6    35 1   
    13     7     8 1   
    14     8     9 1   
    15     8    36 1   
    16     8    37 1   
    17     9    10 1   
    18     9    11 1   
    19     9    38 1   
    20    10    39 1   
    21    10    40 1   
    22    11    12 2   
    23    11    13 1   
    24    13    14 1   
    25    14    15 1   
    26    14    41 1   
    27    14    42 1   
    28    15    16 1   
    29    15    19 1   
    30    15    43 1   
    31    16    17 1   
    32    16    18 1   
    33    19    20 1   
    34    19    44 1   
    35    20    21 2   
    36    20    22 1   
    37    22    23 ar  
    38    22    29 ar  
    39    23    24 1   
    40    23    25 ar  
    41    24    45 1   
    42    25    26 1   
    43    25    27 ar  
    44    26    46 1   
    45    27    28 ar  
    46    27    47 1   
    47    28    29 ar  
    48    28    48 1   
    49    29    49 1   
@<TRIPOS>SUBSTRUCTURE
     1 3ET         1 TEMP              0 ****  ****    0 ROOT
