@<TRIPOS>MOLECULE
3ET
   49    49     1     0     0
SMALL
No Charge or Current Charge


@<TRIPOS>ATOM
      1 O35          5.1500    -0.3920     1.0520 o          1 3ET      -0.482000
      2 C34          4.9200     0.3950     0.1400 c          1 3ET       0.545100
      3 C36          5.7370     1.7050    -0.1120 c3         1 3ET       0.111500
      4 C38          4.8340     2.9400     0.1920 c3         1 3ET       0.171600
      5 O39          5.4610     4.1670    -0.2270 oh         1 3ET      -0.647000
      6 N37          7.0800     1.7730     0.5940 n8         1 3ET      -0.977200
      7 O33          3.9280     0.2190    -0.7900 os         1 3ET      -0.433100
      8 C32          3.0970    -0.9580    -0.6840 c3         1 3ET       0.169600
      9 C22          2.0710    -0.9590    -1.8540 c3         1 3ET       0.104500
     10 N1           2.7400    -0.9470    -3.2180 n8         1 3ET      -0.986200
     11 C25          1.0340    -2.1080    -1.6300 c          1 3ET       0.554100
     12 O10          0.9210    -3.0840    -2.3630 o          1 3ET      -0.512000
     13 O15          0.2590    -1.8860    -0.5210 os         1 3ET      -0.430100
     14 C30         -0.7500    -2.8580    -0.1920 c3         1 3ET       0.173600
     15 C24         -1.4730    -2.3940     1.0920 c3         1 3ET      -0.066300
     16 C27         -0.5220    -2.4820     2.3150 c          1 3ET       0.725000
     17 O14         -0.0940    -1.4450     2.8070 o          1 3ET      -0.705500
     18 O12         -0.3300    -3.5860     2.8060 o          1 3ET      -0.705500
     19 N3          -2.0690    -1.0370     0.9630 ns         1 3ET      -0.420900
     20 C21         -3.1310    -0.7050     0.1520 c          1 3ET       0.624700
     21 O9          -3.7180    -1.5530    -0.5120 o          1 3ET      -0.659100
     22 C18         -3.5450     0.7520     0.1210 ca         1 3ET      -0.205600
     23 C3          -4.6350     1.1680    -0.6820 ca         1 3ET       0.134100
     24 O3          -5.3260     0.2580    -1.4350 oh         1 3ET      -0.601100
     25 C6          -5.0280     2.5230    -0.7180 ca         1 3ET       0.080100
     26 O6          -6.0840     2.8990    -1.5000 oh         1 3ET      -0.550100
     27 C9          -4.3410     3.4800     0.0420 ca         1 3ET      -0.110000
     28 C12         -3.2580     3.0830     0.8410 ca         1 3ET      -0.144000
     29 C15         -2.8610     1.7350     0.8830 ca         1 3ET      -0.074000
     30 H36          5.9290     1.7140    -1.1940 h1         1 3ET       0.093700
     31 H38          3.8740     2.8200    -0.3280 h1         1 3ET       0.032700
     32 H38A         4.6200     2.9700     1.2690 h1         1 3ET       0.032700
     33 HO39         4.8720     4.9010     0.0570 ho         1 3ET       0.438000
     34 HN37         6.9290     1.6750     1.6060 hn         1 3ET       0.407000
     35 HN3A         7.6260     0.9330     0.3610 hn         1 3ET       0.407000
     36 H32          3.7040    -1.8720    -0.7330 h1         1 3ET       0.076700
     37 H32A         2.5600    -0.9600     0.2740 h1         1 3ET       0.076700
     38 H22          1.4910    -0.0290    -1.7620 h1         1 3ET       0.090700
     39 HN1          3.1900    -1.8580    -3.3780 hn         1 3ET       0.406000
     40 HN1A         2.0160    -0.9200    -3.9480 hn         1 3ET       0.406000
     41 H30         -1.4780    -2.9510    -1.0090 h1         1 3ET       0.052200
     42 H30A        -0.3020    -3.8470    -0.0230 h1         1 3ET       0.052200
     43 H24         -2.2890    -3.0990     1.2900 h1         1 3ET       0.081700
     44 HN3         -1.6360    -0.2860     1.4840 hn         1 3ET       0.308500
     45 HO3         -4.8830    -0.6210    -1.2610 ho         1 3ET       0.544000
     46 HO6         -6.4060     2.0760    -1.9340 ho         1 3ET       0.482000
     47 H9          -4.6460     4.5230     0.0120 ha         1 3ET       0.116000
     48 H12         -2.7230     3.8230     1.4320 ha         1 3ET       0.106000
     49 H15         -2.0160     1.4740     1.5160 ha         1 3ET       0.109000
@<TRIPOS>BOND
     1     1     2 2   
     2     2     3 1   
     3     2     7 1   
     4     3     4 1   
     5     3     6 1   
     6     3    30 1   
     7     4     5 1   
     8     4    31 1   
     9     4    32 1   
    10     5    33 1   
    11     6    34 1   
    12     6    35 1   
    13     7     8 1   
    14     8     9 1   
    15     8    36 1   
    16     8    37 1   
    17     9    10 1   
    18     9    11 1   
    19     9    38 1   
    20    10    39 1   
    21    10    40 1   
    22    11    12 2   
    23    11    13 1   
    24    13    14 1   
    25    14    15 1   
    26    14    41 1   
    27    14    42 1   
    28    15    16 1   
    29    15    19 1   
    30    15    43 1   
    31    16    17 1   
    32    16    18 1   
    33    19    20 1   
    34    19    44 1   
    35    20    21 2   
    36    20    22 1   
    37    22    23 ar  
    38    22    29 ar  
    39    23    24 1   
    40    23    25 ar  
    41    24    45 1   
    42    25    26 1   
    43    25    27 ar  
    44    26    46 1   
    45    27    28 ar  
    46    27    47 1   
    47    28    29 ar  
    48    28    48 1   
    49    29    49 1   
@<TRIPOS>SUBSTRUCTURE
     1 3ET         1 TEMP              0 ****  ****    0 ROOT
