@<TRIPOS>MOLECULE
3EU
   17    17     1     0     0
SMALL
abcg2


@<TRIPOS>ATOM
      1 C12         -3.2100     0.0440    -0.1840 c          1 3EU       0.727000
      2 C13         -2.2420    -0.0170     1.0280 c3         1 3EU      -0.200100
      3 C15         -0.7980    -0.0130     0.6470 ca         1 3EU       0.032700
      4 C16         -0.1200     1.1900     0.4630 ca         1 3EU      -0.104000
      5 C17          1.2130     1.1810     0.0910 ca         1 3EU       0.131000
      6 C18          1.9110     0.0010    -0.1100 ca         1 3EU      -0.140000
      7 C19          1.2210    -1.1860     0.0800 ca         1 3EU       0.131000
      8 C20         -0.1120    -1.2080     0.4520 ca         1 3EU      -0.104000
      9 O14         -2.7060     0.0830    -1.3190 o          1 3EU      -0.719000
     10 CL1          2.0620    -2.6840    -0.1530 cl         1 3EU      -0.244000
     11 CL2          2.0430     2.6870    -0.1290 cl         1 3EU      -0.244000
     12 H4          -2.4590     0.8290     1.6850 hc         1 3EU       0.037200
     13 H5          -2.4750    -0.9140     1.6080 hc         1 3EU       0.037200
     14 H6          -0.6330     2.1300     0.6180 ha         1 3EU       0.129000
     15 H7           2.9540     0.0060    -0.3950 ha         1 3EU       0.122000
     16 H8          -0.6190    -2.1530     0.5990 ha         1 3EU       0.129000
     17 OXT         -4.4200     0.0470     0.1080 o          1 3EU      -0.719000
@<TRIPOS>BOND
     1     1     2 1   
     2     1     9 1   
     3     1    17 1   
     4     2     3 1   
     5     2    12 1   
     6     2    13 1   
     7     3     4 ar  
     8     3     8 ar  
     9     4     5 ar  
    10     4    14 1   
    11     5     6 ar  
    12     5    11 1   
    13     6     7 ar  
    14     6    15 1   
    15     7     8 ar  
    16     7    10 1   
    17     8    16 1   
@<TRIPOS>SUBSTRUCTURE
     1 3EU         1 TEMP              0 ****  ****    0 ROOT
