@<TRIPOS>MOLECULE
3EU
   17    17     1     0     0
SMALL
No Charge or Current Charge


@<TRIPOS>ATOM
      1 C12         -3.1730    -0.0640    -0.1870 c          1 3EU       0.727000
      2 C13         -2.2930    -0.1870     1.0630 c3         1 3EU      -0.200100
      3 C15         -0.8280    -0.0630     0.6600 ca         1 3EU       0.032700
      4 C16         -0.2010     1.1990     0.6320 ca         1 3EU      -0.104000
      5 C17          1.1490     1.3110     0.2620 ca         1 3EU       0.131000
      6 C18          1.8850     0.1680    -0.0830 ca         1 3EU      -0.140000
      7 C19          1.2650    -1.0910    -0.0580 ca         1 3EU       0.131000
      8 C20         -0.0850    -1.2080     0.3120 ca         1 3EU      -0.104000
      9 O14         -3.3980    -1.0770    -0.8320 o          1 3EU      -0.719000
     10 Cl1          2.1840    -2.5270    -0.4910 cl         1 3EU      -0.244000
     11 Cl2          1.9210     2.8910     0.2300 cl         1 3EU      -0.244000
     12 H4          -2.5090     0.6320     1.7590 hc         1 3EU       0.037200
     13 H5          -2.4210    -1.1770     1.5180 hc         1 3EU       0.037200
     14 H6          -0.7610     2.0920     0.8950 ha         1 3EU       0.129000
     15 H7           2.9290     0.2560    -0.3700 ha         1 3EU       0.122000
     16 H8          -0.5530    -2.1880     0.3250 ha         1 3EU       0.129000
     17 OXT         -3.5010     1.0560    -0.5490 o          1 3EU      -0.719000
@<TRIPOS>BOND
     1     1     2 1   
     2     1     9 1   
     3     1    17 1   
     4     2     3 1   
     5     2    12 1   
     6     2    13 1   
     7     3     4 ar  
     8     3     8 ar  
     9     4     5 ar  
    10     4    14 1   
    11     5     6 ar  
    12     5    11 1   
    13     6     7 ar  
    14     6    15 1   
    15     7     8 ar  
    16     7    10 1   
    17     8    16 1   
@<TRIPOS>SUBSTRUCTURE
     1 3EU         1 TEMP              0 ****  ****    0 ROOT
