@<TRIPOS>MOLECULE
3EV
   74    76     1     0     0
SMALL
bcc


@<TRIPOS>ATOM
      1 C1           5.8580    -2.0450     0.7870 c6         1 3EV       0.188300
      2 O1           5.8070    -3.4450     0.8540 oh         1 3EV      -0.588800
      3 C2           7.2800    -1.6400     0.4080 c6         1 3EV      -0.069400
      4 O2           8.7550     0.1640    -0.0140 oh         1 3EV      -0.592800
      5 C3           7.4220    -0.1280     0.3430 c6         1 3EV       0.152100
      6 O3          -8.7360    -0.1930    -0.2810 oh         1 3EV      -0.597800
      7 C4           6.4200     0.4640    -0.6510 c6         1 3EV      -0.075200
      8 C5           5.0180     0.0280    -0.3240 ce         1 3EV      -0.078200
      9 C6           4.0260     0.9150    -0.1330 cf         1 3EV      -0.110000
     10 C7           2.6650     0.6050     0.2560 cf         1 3EV      -0.145000
     11 C8           1.6560     1.4800     0.3940 c2         1 3EV      -0.074400
     12 C9           1.7440     2.9630     0.1610 c6         1 3EV      -0.042200
     13 C10          4.8730    -1.4370    -0.1890 ce         1 3EV      -0.122200
     14 C11          0.6440     3.4640    -0.7810 c6         1 3EV      -0.071400
     15 C12         -0.7500     2.9890    -0.3710 c6         1 3EV      -0.063400
     16 C13         -0.8030     1.4660    -0.2210 c5         1 3EV      -0.035000
     17 C14          0.2800     1.0660     0.8130 c5         1 3EV      -0.036500
     18 C15         -0.0290    -0.3870     1.1330 c5         1 3EV      -0.071400
     19 C16         -1.5660    -0.4510     1.0750 c5         1 3EV      -0.077400
     20 C17         -2.0640     0.8890     0.4690 c5         1 3EV      -0.053700
     21 C18         -0.5590     0.7780    -1.5660 c3         1 3EV      -0.079100
     22 C19          4.0030    -2.1540    -0.8970 c2         1 3EV      -0.197000
     23 C20         -3.3470     0.7050    -0.3560 c3         1 3EV      -0.046700
     24 C21         -3.8360     1.9940    -1.0100 c3         1 3EV      -0.087100
     25 C22         -4.4470     0.1030     0.5320 c3         1 3EV      -0.078400
     26 C23         -5.7400    -0.2530    -0.1980 c3         1 3EV      -0.071400
     27 C24         -6.6790    -1.0670     0.6830 c3         1 3EV      -0.102400
     28 C25         -8.0530    -1.3900     0.0760 c3         1 3EV       0.159800
     29 C26         -8.8780    -2.1760     1.0940 c3         1 3EV      -0.100100
     30 C27         -7.9190    -2.1980    -1.2080 c3         1 3EV      -0.100100
     31 H1           5.6370    -1.6060     1.7730 h1         1 3EV       0.034700
     32 HO1          4.9590    -3.7020     1.2300 ho         1 3EV       0.406000
     33 H2           7.9780    -2.0450     1.1460 hc         1 3EV       0.068200
     34 H2A          7.5320    -2.0760    -0.5650 hc         1 3EV       0.068200
     35 HO2          8.8690     1.1200     0.0090 ho         1 3EV       0.404000
     36 H3           7.1930     0.2840     1.3380 h1         1 3EV       0.028700
     37 HO3         -8.8310     0.3440     0.5130 ho         1 3EV       0.399000
     38 H4           6.4910     1.5560    -0.6510 hc         1 3EV       0.054700
     39 H4A          6.6920     0.1180    -1.6550 hc         1 3EV       0.054700
     40 H6           4.2820     1.9620    -0.2630 ha         1 3EV       0.119000
     41 H7           2.4610    -0.4390     0.4650 ha         1 3EV       0.126000
     42 H9           1.6240     3.4660     1.1280 hc         1 3EV       0.045700
     43 H9A          2.7180     3.2660    -0.2220 hc         1 3EV       0.045700
     44 H11          0.6670     4.5560    -0.8060 hc         1 3EV       0.041200
     45 H11A         0.8620     3.1340    -1.8000 hc         1 3EV       0.041200
     46 H12         -1.0240     3.4460     0.5870 hc         1 3EV       0.041700
     47 H12A        -1.4760     3.3460    -1.1030 hc         1 3EV       0.041700
     48 H14          0.0420     1.6520     1.7150 hc         1 3EV       0.053700
     49 H15          0.4110    -1.0580     0.3910 hc         1 3EV       0.043700
     50 H15A         0.3710    -0.6900     2.1020 hc         1 3EV       0.043700
     51 H16         -1.8940    -1.2920     0.4580 hc         1 3EV       0.040700
     52 H16A        -1.9930    -0.6160     2.0650 hc         1 3EV       0.040700
     53 H17         -2.3080     1.5730     1.2950 hc         1 3EV       0.044700
     54 H18          0.4600     0.9270    -1.9230 hc         1 3EV       0.034367
     55 H18A        -0.7240    -0.3000    -1.5110 hc         1 3EV       0.034367
     56 H18B        -1.2290     1.1700    -2.3330 hc         1 3EV       0.034367
     57 H19          3.9340    -3.2310    -0.8120 ha         1 3EV       0.119500
     58 H19A         3.3310    -1.6820    -1.6030 ha         1 3EV       0.119500
     59 H20         -3.1390    -0.0280    -1.1470 hc         1 3EV       0.046700
     60 H21         -3.9550     2.7900    -0.2700 hc         1 3EV       0.033700
     61 H21A        -3.1540     2.3560    -1.7790 hc         1 3EV       0.033700
     62 H21B        -4.8020     1.8530    -1.4960 hc         1 3EV       0.033700
     63 H22         -4.0680    -0.8090     1.0040 hc         1 3EV       0.035700
     64 H22A        -4.6650     0.7970     1.3530 hc         1 3EV       0.035700
     65 H23         -6.2540     0.6500    -0.5320 hc         1 3EV       0.046200
     66 H23A        -5.4880    -0.8160    -1.1030 hc         1 3EV       0.046200
     67 H24         -6.1940    -2.0080     0.9630 hc         1 3EV       0.038700
     68 H24A        -6.8400    -0.5300     1.6270 hc         1 3EV       0.038700
     69 H26         -9.8670    -2.4130     0.6960 hc         1 3EV       0.041200
     70 H26A        -8.3880    -3.1140     1.3570 hc         1 3EV       0.041200
     71 H26B        -9.0110    -1.6070     2.0180 hc         1 3EV       0.041200
     72 H27         -7.3840    -1.6480    -1.9830 hc         1 3EV       0.041200
     73 H27A        -7.3740    -3.1240    -1.0190 hc         1 3EV       0.041200
     74 H27B        -8.9010    -2.4670    -1.6030 hc         1 3EV       0.041200
@<TRIPOS>BOND
     1     1     2 1   
     2     1     3 1   
     3     1    13 1   
     4     1    31 1   
     5     2    32 1   
     6     3     5 1   
     7     3    33 1   
     8     3    34 1   
     9     4     5 1   
    10     4    35 1   
    11     5     7 1   
    12     5    36 1   
    13     6    28 1   
    14     6    37 1   
    15     7     8 1   
    16     7    38 1   
    17     7    39 1   
    18     8     9 2   
    19     8    13 1   
    20     9    10 1   
    21     9    40 1   
    22    10    11 2   
    23    10    41 1   
    24    11    12 1   
    25    11    17 1   
    26    12    14 1   
    27    12    42 1   
    28    12    43 1   
    29    13    22 2   
    30    14    15 1   
    31    14    44 1   
    32    14    45 1   
    33    15    16 1   
    34    15    46 1   
    35    15    47 1   
    36    16    17 1   
    37    16    20 1   
    38    16    21 1   
    39    17    18 1   
    40    17    48 1   
    41    18    19 1   
    42    18    49 1   
    43    18    50 1   
    44    19    20 1   
    45    19    51 1   
    46    19    52 1   
    47    20    23 1   
    48    20    53 1   
    49    21    54 1   
    50    21    55 1   
    51    21    56 1   
    52    22    57 1   
    53    22    58 1   
    54    23    24 1   
    55    23    25 1   
    56    23    59 1   
    57    24    60 1   
    58    24    61 1   
    59    24    62 1   
    60    25    26 1   
    61    25    63 1   
    62    25    64 1   
    63    26    27 1   
    64    26    65 1   
    65    26    66 1   
    66    27    28 1   
    67    27    67 1   
    68    27    68 1   
    69    28    29 1   
    70    28    30 1   
    71    29    69 1   
    72    29    70 1   
    73    29    71 1   
    74    30    72 1   
    75    30    73 1   
    76    30    74 1   
@<TRIPOS>SUBSTRUCTURE
     1 3EV         1 TEMP              0 ****  ****    0 ROOT
