@<TRIPOS>MOLECULE
3EV
   74    76     1     0     0
SMALL
No Charge or Current Charge


@<TRIPOS>ATOM
      1 C1           5.9440    -2.1290     0.7150 c6         1 3EV       0.211500
      2 O1           5.7860    -3.5480     0.6210 oh         1 3EV      -0.651000
      3 C2           7.3900    -1.7350     0.3370 c6         1 3EV      -0.069400
      4 O2           8.9100     0.1470     0.0160 oh         1 3EV      -0.655000
      5 C3           7.5790    -0.2010     0.4130 c6         1 3EV       0.175300
      6 O3          -8.8750    -0.2780    -0.3360 oh         1 3EV      -0.660000
      7 C4           6.5470     0.5280    -0.4840 c6         1 3EV      -0.075200
      8 C5           5.1140     0.0850    -0.1550 ce         1 3EV      -0.078200
      9 C6           4.1260     0.9980     0.0740 cf         1 3EV      -0.160000
     10 C7           2.7360     0.6780     0.4100 cf         1 3EV      -0.195000
     11 C8           1.6740     1.5330     0.4500 c2         1 3EV      -0.074400
     12 C9           1.7720     3.0340     0.1420 c6         1 3EV      -0.042200
     13 C10          4.9390    -1.3780    -0.1850 ce         1 3EV      -0.122200
     14 C11          0.6830     3.5060    -0.8550 c6         1 3EV      -0.071400
     15 C12         -0.7360     2.9960    -0.4790 c6         1 3EV      -0.063400
     16 C13         -0.7690     1.4450    -0.2690 c5         1 3EV      -0.035000
     17 C14          0.2550     1.1030     0.8680 c5         1 3EV      -0.036500
     18 C15          0.0200    -0.4150     1.0750 c5         1 3EV      -0.071400
     19 C16         -1.5360    -0.5160     1.0190 c5         1 3EV      -0.077400
     20 C17         -2.0570     0.8640     0.4490 c5         1 3EV      -0.053700
     21 C18         -0.4850     0.7470    -1.6450 c3         1 3EV      -0.079100
     22 C19          4.0100    -1.9770    -0.9690 c2         1 3EV      -0.297000
     23 C20         -3.4060     0.7250    -0.3540 c3         1 3EV      -0.046700
     24 C21         -3.8610     2.0380    -1.0430 c3         1 3EV      -0.087100
     25 C22         -4.5430     0.1430     0.5480 c3         1 3EV      -0.078400
     26 C23         -5.8360    -0.2910    -0.1890 c3         1 3EV      -0.071400
     27 C24         -6.8310    -1.0350     0.7420 c3         1 3EV      -0.102400
     28 C25         -8.1910    -1.4530     0.1040 c3         1 3EV       0.183000
     29 C26         -9.0850    -2.1400     1.1630 c3         1 3EV      -0.100100
     30 C27         -8.0070    -2.3830    -1.1190 c3         1 3EV      -0.100100
     31 H1           5.7650    -1.8140     1.7540 h1         1 3EV       0.034700
     32 HO1          4.8600    -3.7340     0.8880 ho         1 3EV       0.445000
     33 H2           8.0990    -2.2310     1.0130 hc         1 3EV       0.068200
     34 H2A          7.6160    -2.0890    -0.6770 hc         1 3EV       0.068200
     35 HO2          9.0040     1.1140     0.1620 ho         1 3EV       0.443000
     36 H3           7.4110     0.1130     1.4540 h1         1 3EV       0.028700
     37 HO3         -8.9100     0.3320     0.4300 ho         1 3EV       0.438000
     38 H4           6.6540     1.6150    -0.3640 hc         1 3EV       0.054700
     39 H4A          6.7530     0.3120    -1.5420 hc         1 3EV       0.054700
     40 H6           4.4070     2.0480     0.0320 ha         1 3EV       0.169000
     41 H7           2.5720    -0.3660     0.6690 ha         1 3EV       0.176000
     42 H9           1.6620     3.5910     1.0830 hc         1 3EV       0.045700
     43 H9A          2.7490     3.3190    -0.2620 hc         1 3EV       0.045700
     44 H11          0.6780     4.6040    -0.8990 hc         1 3EV       0.041200
     45 H11A         0.9450     3.1700    -1.8670 hc         1 3EV       0.041200
     46 H12         -1.0680     3.5040     0.4380 hc         1 3EV       0.041700
     47 H12A        -1.4260     3.3080    -1.2680 hc         1 3EV       0.041700
     48 H14          0.0010     1.6370     1.7940 hc         1 3EV       0.053700
     49 H15          0.4710    -1.0260     0.2860 hc         1 3EV       0.043700
     50 H15A         0.4250    -0.7700     2.0290 hc         1 3EV       0.043700
     51 H16         -1.8370    -1.3610     0.3880 hc         1 3EV       0.040700
     52 H16A        -1.9530    -0.7080     2.0140 hc         1 3EV       0.040700
     53 H17         -2.3050     1.5170     1.2950 hc         1 3EV       0.044700
     54 H18          0.5510     0.8860    -1.9740 hc         1 3EV       0.034367
     55 H18A        -0.6660    -0.3330    -1.6170 hc         1 3EV       0.034367
     56 H18B        -1.1330     1.1480    -2.4330 hc         1 3EV       0.034367
     57 H19          3.8850    -3.0580    -1.0250 ha         1 3EV       0.169500
     58 H19A         3.3440    -1.3890    -1.6010 ha         1 3EV       0.169500
     59 H20         -3.2410    -0.0040    -1.1570 hc         1 3EV       0.046700
     60 H21         -3.8590     2.8760    -0.3350 hc         1 3EV       0.033700
     61 H21A        -3.2080     2.2790    -1.8860 hc         1 3EV       0.033700
     62 H21B        -4.8660     1.9550    -1.4660 hc         1 3EV       0.033700
     63 H22         -4.1680    -0.7390     1.0790 hc         1 3EV       0.035700
     64 H22A        -4.7980     0.8780     1.3210 hc         1 3EV       0.035700
     65 H23         -6.3380     0.5860    -0.6110 hc         1 3EV       0.046200
     66 H23A        -5.5590    -0.9420    -1.0270 hc         1 3EV       0.046200
     67 H24         -6.3370    -1.9350     1.1280 hc         1 3EV       0.038700
     68 H24A        -7.0290    -0.4000     1.6140 hc         1 3EV       0.038700
     69 H26        -10.0640    -2.4000     0.7420 hc         1 3EV       0.041200
     70 H26A        -8.6160    -3.0630     1.5240 hc         1 3EV       0.041200
     71 H26B        -9.2510    -1.4840     2.0260 hc         1 3EV       0.041200
     72 H27         -7.4900    -1.8720    -1.9380 hc         1 3EV       0.041200
     73 H27A        -7.4250    -3.2720    -0.8470 hc         1 3EV       0.041200
     74 H27B        -8.9790    -2.7200    -1.5020 hc         1 3EV       0.041200
@<TRIPOS>BOND
     1     1     2 1   
     2     1     3 1   
     3     1    13 1   
     4     1    31 1   
     5     2    32 1   
     6     3     5 1   
     7     3    33 1   
     8     3    34 1   
     9     4     5 1   
    10     4    35 1   
    11     5     7 1   
    12     5    36 1   
    13     6    28 1   
    14     6    37 1   
    15     7     8 1   
    16     7    38 1   
    17     7    39 1   
    18     8     9 2   
    19     8    13 1   
    20     9    10 1   
    21     9    40 1   
    22    10    11 2   
    23    10    41 1   
    24    11    12 1   
    25    11    17 1   
    26    12    14 1   
    27    12    42 1   
    28    12    43 1   
    29    13    22 2   
    30    14    15 1   
    31    14    44 1   
    32    14    45 1   
    33    15    16 1   
    34    15    46 1   
    35    15    47 1   
    36    16    17 1   
    37    16    20 1   
    38    16    21 1   
    39    17    18 1   
    40    17    48 1   
    41    18    19 1   
    42    18    49 1   
    43    18    50 1   
    44    19    20 1   
    45    19    51 1   
    46    19    52 1   
    47    20    23 1   
    48    20    53 1   
    49    21    54 1   
    50    21    55 1   
    51    21    56 1   
    52    22    57 1   
    53    22    58 1   
    54    23    24 1   
    55    23    25 1   
    56    23    59 1   
    57    24    60 1   
    58    24    61 1   
    59    24    62 1   
    60    25    26 1   
    61    25    63 1   
    62    25    64 1   
    63    26    27 1   
    64    26    65 1   
    65    26    66 1   
    66    27    28 1   
    67    27    67 1   
    68    27    68 1   
    69    28    29 1   
    70    28    30 1   
    71    29    69 1   
    72    29    70 1   
    73    29    71 1   
    74    30    72 1   
    75    30    73 1   
    76    30    74 1   
@<TRIPOS>SUBSTRUCTURE
     1 3EV         1 TEMP              0 ****  ****    0 ROOT
