@<TRIPOS>MOLECULE
3EW
   42    44     1     0     0
SMALL
abcg2


@<TRIPOS>ATOM
      1 O3          -0.6600    -6.2290    -0.3170 oh         1 3EW      -0.639000
      2 C4          -1.8230     2.0840    -0.3520 ca         1 3EW       0.244000
      3 C5          -1.3440     0.8020    -0.5390 ca         1 3EW       0.230000
      4 C6          -2.1010    -0.2980    -0.0770 ca         1 3EW      -0.130600
      5 C7          -1.5270    -1.6740    -0.2060 c          1 3EW       0.609700
      6 C8           1.0900     0.7400    -0.6310 ca         1 3EW       0.367000
      7 N2          -2.3940    -2.5490    -0.7520 ns         1 3EW      -0.392400
      8 C9           1.2350     1.1590     0.6950 ca         1 3EW      -0.164000
      9 C10          2.4800     1.3050     1.2790 ca         1 3EW      -0.037000
     10 C11          3.6230     1.0220     0.5460 ca         1 3EW      -0.062900
     11 C12          3.5220     0.5930    -0.7670 ca         1 3EW      -0.032000
     12 N3          -4.8840     1.7000     1.3100 na         1 3EW      -0.171600
     13 C13          2.2680     0.4600    -1.3370 ca         1 3EW       0.049000
     14 C14         -4.7830     3.0470     1.2020 cc         1 3EW       0.424700
     15 C15         -2.4480    -4.7020     0.0560 c3         1 3EW       0.128600
     16 N4          -3.6960     3.4530     0.6050 nd         1 3EW      -0.542100
     17 BR1          5.3270     1.2180     1.3350 br         1 3EW      -0.101100
     18 CL1          2.1590    -0.0770    -2.9840 cl         1 3EW      -0.210000
     19 F1          -1.1210     3.1260    -0.7920 f          1 3EW      -0.135000
     20 C3          -3.0340     2.2970     0.2970 ca         1 3EW       0.040400
     21 C17         -5.9630     0.9510     1.9110 c3         1 3EW       0.063900
     22 C2          -3.7630     1.1790     0.7270 ca         1 3EW      -0.075200
     23 C1          -3.3270    -0.1270     0.5450 ca         1 3EW      -0.097000
     24 O1          -0.4120    -1.9670     0.1790 o          1 3EW      -0.531100
     25 O2          -2.0040    -3.8280    -0.9850 os         1 3EW      -0.209100
     26 C16         -2.0630    -6.1100    -0.3120 c3         1 3EW       0.164600
     27 H1          -0.4390    -7.1360    -0.5450 ho         1 3EW       0.443000
     28 H2          -0.1780     0.0910    -2.0880 hn         1 3EW       0.509000
     29 H3          -3.2320    -2.2590    -1.2380 hn         1 3EW       0.337500
     30 H4           0.3560     1.3640     1.2920 ha         1 3EW       0.124000
     31 H5           2.5430     1.6310     2.3080 ha         1 3EW       0.128000
     32 H6           4.4010     0.3630    -1.3540 ha         1 3EW       0.140000
     33 H7          -5.5550     3.6960     1.5900 h5         1 3EW       0.068800
     34 H8          -2.0000    -4.4130     1.0120 h1         1 3EW       0.044700
     35 H9          -3.5370    -4.6490     0.1560 h1         1 3EW       0.044700
     36 H10         -6.4880     0.3630     1.1610 h1         1 3EW       0.056367
     37 H11         -5.5770     0.2870     2.6820 h1         1 3EW       0.056367
     38 H12         -6.6640     1.6440     2.3690 h1         1 3EW       0.056367
     39 H13         -3.8990    -0.9740     0.9020 ha         1 3EW       0.129000
     40 H14         -2.5010    -6.3640    -1.2860 h1         1 3EW       0.025700
     41 H15         -2.5310    -6.7700     0.4280 h1         1 3EW       0.025700
     42 N1          -0.1350     0.6240    -1.2330 nu         1 3EW      -0.981000
@<TRIPOS>BOND
     1     1    26 1   
     2     1    27 1   
     3     2     3 ar  
     4     2    19 1   
     5     2    20 ar  
     6     3     4 ar  
     7     3    42 1   
     8     4     5 1   
     9     4    23 ar  
    10     5     7 1   
    11     5    24 2   
    12     6     8 ar  
    13     6    13 ar  
    14     6    42 1   
    15     7    25 1   
    16     7    29 1   
    17     8     9 ar  
    18     8    30 1   
    19     9    10 ar  
    20     9    31 1   
    21    10    11 ar  
    22    10    17 1   
    23    11    13 ar  
    24    11    32 1   
    25    12    14 1   
    26    12    21 1   
    27    12    22 1   
    28    13    18 1   
    29    14    16 2   
    30    14    33 1   
    31    15    25 1   
    32    15    26 1   
    33    15    34 1   
    34    15    35 1   
    35    16    20 1   
    36    20    22 ar  
    37    21    36 1   
    38    21    37 1   
    39    21    38 1   
    40    22    23 ar  
    41    23    39 1   
    42    26    40 1   
    43    26    41 1   
    44    28    42 1   
@<TRIPOS>SUBSTRUCTURE
     1 3EW         1 TEMP              0 ****  ****    0 ROOT
