@<TRIPOS>MOLECULE
3EW
   42    44     1     0     0
SMALL
No Charge or Current Charge


@<TRIPOS>ATOM
      1 O3          -1.2260    -6.4430    -1.4490 oh         1 3EW      -0.639000
      2 C4          -1.6260     1.9700     0.1170 ca         1 3EW       0.244000
      3 C5          -1.3220     0.6220    -0.2580 ca         1 3EW       0.230000
      4 C6          -2.3610    -0.3640    -0.2460 ca         1 3EW      -0.130600
      5 C7          -2.1070    -1.7940    -0.6970 c          1 3EW       0.609700
      6 C8           1.2760     0.6220    -0.2770 ca         1 3EW       0.367000
      7 N2          -2.9990    -2.7470    -0.2240 ns         1 3EW      -0.392400
      8 C9           1.5090     1.2400     0.9660 ca         1 3EW      -0.164000
      9 C10          2.8120     1.5980     1.3540 ca         1 3EW      -0.037000
     10 C11          3.8950     1.3270     0.5020 ca         1 3EW      -0.062900
     11 C12          3.6810     0.6880    -0.7300 ca         1 3EW      -0.032000
     12 N3          -5.0320     1.9480     1.0050 na         1 3EW      -0.171600
     13 C13          2.3780     0.3290    -1.1180 ca         1 3EW       0.049000
     14 C14         -4.7280     3.2920     1.2250 cc         1 3EW       0.424700
     15 C15         -1.9600    -4.8350     0.2740 c3         1 3EW       0.128600
     16 N4          -3.4310     3.5390     0.9420 nd         1 3EW      -0.542100
     17 Br1          5.6680     1.8110     1.0300 br         1 3EW      -0.101100
     18 Cl1          2.1460    -0.4900    -2.6700 cl         1 3EW      -0.210000
     19 F1          -0.6950     2.9540     0.0360 f          1 3EW      -0.135000
     20 C3          -2.9270     2.2950     0.5380 ca         1 3EW       0.040400
     21 C17         -6.3160     1.2530     1.1850 c3         1 3EW       0.063900
     22 C2          -3.8930     1.3340     0.5750 ca         1 3EW      -0.075200
     23 C1          -3.6640     0.0090     0.1900 ca         1 3EW      -0.097000
     24 O1          -1.2030    -2.1010    -1.4680 o          1 3EW      -0.531100
     25 O2          -2.8290    -4.1200    -0.6270 os         1 3EW      -0.209100
     26 C16         -1.8790    -6.3150    -0.1740 c3         1 3EW       0.164600
     27 H1          -1.2370    -7.3980    -1.6810 ho         1 3EW       0.443000
     28 H2          -0.0200    -0.5730    -1.2830 hn         1 3EW       0.509000
     29 H3          -3.7530    -2.5430     0.4230 hn         1 3EW       0.337500
     30 H4           0.6830     1.4320     1.6440 ha         1 3EW       0.124000
     31 H5           2.9810     2.0790     2.3150 ha         1 3EW       0.128000
     32 H6           4.5210     0.4670    -1.3840 ha         1 3EW       0.140000
     33 H7          -5.4630     4.0080     1.5740 h5         1 3EW       0.068800
     34 H8          -0.9540    -4.3970     0.2790 h1         1 3EW       0.044700
     35 H9          -2.3560    -4.7960     1.2970 h1         1 3EW       0.044700
     36 H10         -6.6490     0.8400     0.2250 h1         1 3EW       0.056367
     37 H11         -6.1960     0.4380     1.9100 h1         1 3EW       0.056367
     38 H12         -7.0720     1.9560     1.5560 h1         1 3EW       0.056367
     39 H13         -4.4890    -0.6980     0.2030 ha         1 3EW       0.129000
     40 H14         -2.8950    -6.7300    -0.2190 h1         1 3EW       0.025700
     41 H15         -1.3260    -6.8790     0.5880 h1         1 3EW       0.025700
     42 N1          -0.0210     0.2420    -0.6570 nu         1 3EW      -0.981000
@<TRIPOS>BOND
     1     1    26 1   
     2     1    27 1   
     3     2     3 ar  
     4     2    19 1   
     5     2    20 ar  
     6     3     4 ar  
     7     3    42 1   
     8     4     5 1   
     9     4    23 ar  
    10     5     7 1   
    11     5    24 2   
    12     6     8 ar  
    13     6    13 ar  
    14     6    42 1   
    15     7    25 1   
    16     7    29 1   
    17     8     9 ar  
    18     8    30 1   
    19     9    10 ar  
    20     9    31 1   
    21    10    11 ar  
    22    10    17 1   
    23    11    13 ar  
    24    11    32 1   
    25    12    14 1   
    26    12    21 1   
    27    12    22 1   
    28    13    18 1   
    29    14    16 2   
    30    14    33 1   
    31    15    25 1   
    32    15    26 1   
    33    15    34 1   
    34    15    35 1   
    35    16    20 1   
    36    20    22 ar  
    37    21    36 1   
    38    21    37 1   
    39    21    38 1   
    40    22    23 ar  
    41    23    39 1   
    42    26    40 1   
    43    26    41 1   
    44    28    42 1   
@<TRIPOS>SUBSTRUCTURE
     1 3EW         1 TEMP              0 ****  ****    0 ROOT
