@<TRIPOS>MOLECULE
3EX
   45    48     1     0     0
SMALL
No Charge or Current Charge


@<TRIPOS>ATOM
      1 O3          -4.9860     1.2980     0.8900 os         1 3EX      -0.205100
      2 C4          -1.2380    -2.7790     0.8140 ca         1 3EX       0.131100
      3 C5          -0.1210    -2.0990     0.4060 ca         1 3EX      -0.221800
      4 O4          -6.1730     3.8290    -0.0110 oh         1 3EX      -0.639000
      5 C6          -0.4890    -0.7130     0.2120 cc         1 3EX       0.236800
      6 N1           1.1560    -4.1320     0.4310 nb         1 3EX      -0.692000
      7 C7          -1.8440    -0.6790     0.5020 cd         1 3EX      -0.185100
      8 C8          -2.7330     0.5060     0.4330 c          1 3EX       0.664300
      9 N2          -4.0340     0.2210     0.8060 ns         1 3EX      -0.379400
     10 C9          -5.7560     1.4170    -0.3210 c3         1 3EX       0.123600
     11 C10          1.6960     0.5940     0.0530 ca         1 3EX       0.233000
     12 C11          2.3700     0.0440     1.1580 ca         1 3EX      -0.115000
     13 C12          3.7330     0.3180     1.3740 ca         1 3EX      -0.106000
     14 C13          4.4480     1.1570     0.4970 ca         1 3EX      -0.022300
     15 C14          3.7690     1.7270    -0.6010 ca         1 3EX      -0.140000
     16 C15          2.4090     1.4540    -0.8160 ca         1 3EX       0.162000
     17 F1           1.7850     2.0230    -1.8760 f          1 3EX      -0.170000
     18 C16          5.9100     1.4320     0.7560 cx         1 3EX      -0.094400
     19 C18          6.5380     2.7820     0.4850 cx         1 3EX      -0.118900
     20 C17          6.9130     1.5930    -0.3670 cx         1 3EX      -0.118900
     21 C3           1.0750    -2.7930     0.1990 ca         1 3EX       0.418900
     22 C2           0.0370    -4.7860     0.8570 ca         1 3EX       0.367900
     23 O1          -2.2930    -1.9260     0.8820 os         1 3EX      -0.164200
     24 C1          -1.2030    -4.1490     1.0590 ca         1 3EX      -0.176000
     25 O2          -2.3640     1.6190     0.0720 o          1 3EX      -0.592100
     26 C19         -6.8030     2.5430    -0.1430 c3         1 3EX       0.164600
     27 H1          -6.8910     4.4870     0.1260 ho         1 3EX       0.442000
     28 H2          -4.3170    -0.6880     1.1570 hn         1 3EX       0.350500
     29 H3          -5.1080     1.6490    -1.1770 h1         1 3EX       0.047200
     30 H4          -6.2810     0.4770    -0.5340 h1         1 3EX       0.047200
     31 H5           1.8370    -0.5880     1.8620 ha         1 3EX       0.128000
     32 H6           4.2320    -0.1220     2.2350 ha         1 3EX       0.122000
     33 H7          -0.1870     1.1080    -0.5690 hn         1 3EX       0.536000
     34 H8           4.2860     2.3860    -1.2930 ha         1 3EX       0.134000
     35 H9           6.2730     0.9130     1.6400 hc         1 3EX       0.083700
     36 H10          5.9240     3.5580     0.0340 hc         1 3EX       0.075200
     37 H11          7.2750     3.1470     1.1960 hc         1 3EX       0.075200
     38 H12          7.9000     1.1600    -0.2260 hc         1 3EX       0.075200
     39 H13          6.5510     1.5660    -1.3910 hc         1 3EX       0.075200
     40 H14          1.9750    -2.2980    -0.1630 h4         1 3EX       0.034100
     41 H15          0.1400    -5.8570     1.0290 h4         1 3EX       0.024100
     42 H16         -2.0820    -4.7000     1.3790 ha         1 3EX       0.141000
     43 H17         -7.4160     2.3240     0.7410 h1         1 3EX       0.025200
     44 H18         -7.4700     2.5410    -1.0150 h1         1 3EX       0.025200
     45 N3           0.3310     0.3280    -0.1530 nu         1 3EX      -0.805000
@<TRIPOS>BOND
     1     1     9 1   
     2     1    10 1   
     3     2     3 ar  
     4     2    23 1   
     5     2    24 ar  
     6     3     5 1   
     7     3    21 ar  
     8     4    26 1   
     9     4    27 1   
    10     5     7 2   
    11     5    45 1   
    12     6    21 ar  
    13     6    22 ar  
    14     7     8 1   
    15     7    23 1   
    16     8     9 1   
    17     8    25 2   
    18     9    28 1   
    19    10    26 1   
    20    10    29 1   
    21    10    30 1   
    22    11    12 ar  
    23    11    16 ar  
    24    11    45 1   
    25    12    13 ar  
    26    12    31 1   
    27    13    14 ar  
    28    13    32 1   
    29    14    15 ar  
    30    14    18 1   
    31    15    16 ar  
    32    15    34 1   
    33    16    17 1   
    34    18    19 1   
    35    18    20 1   
    36    18    35 1   
    37    19    20 1   
    38    19    36 1   
    39    19    37 1   
    40    20    38 1   
    41    20    39 1   
    42    21    40 1   
    43    22    24 ar  
    44    22    41 1   
    45    24    42 1   
    46    26    43 1   
    47    26    44 1   
    48    33    45 1   
@<TRIPOS>SUBSTRUCTURE
     1 3EX         1 TEMP              0 ****  ****    0 ROOT
