@<TRIPOS>MOLECULE
3EX
   45    48     1     0     0
SMALL
bcc


@<TRIPOS>ATOM
      1 O3          -4.9880     1.1620     0.9210 os         1 3EX      -0.181900
      2 C4          -1.1370    -2.6100     0.6800 ca         1 3EX       0.131100
      3 C5          -0.0100    -1.8610     0.3420 ca         1 3EX      -0.287100
      4 O4          -6.1090     3.6140     0.0150 oh         1 3EX      -0.576800
      5 C6          -0.4730    -0.4970     0.2290 cc         1 3EX       0.236800
      6 N1           1.2720    -3.8540     0.3170 nb         1 3EX      -0.692000
      7 C7          -1.8130    -0.5500     0.4980 cd         1 3EX      -0.185100
      8 C8          -2.7810     0.5350     0.4970 c          1 3EX       0.731300
      9 N2          -4.0460     0.1930     0.8110 ns         1 3EX      -0.446400
     10 C9          -5.7540     1.2780    -0.2820 c3         1 3EX       0.100400
     11 C10          1.6080     0.7610     0.1260 ca         1 3EX       0.094600
     12 C11          2.2160     0.3190     1.2970 ca         1 3EX      -0.133000
     13 C12          3.5760     0.4930     1.5010 ca         1 3EX      -0.124000
     14 C13          4.3720     1.1460     0.5630 ca         1 3EX      -0.022300
     15 C14          3.7630     1.6170    -0.6010 ca         1 3EX      -0.158000
     16 C15          2.4170     1.4100    -0.8010 ca         1 3EX       0.126900
     17 F1           1.8490     1.8600    -1.9300 f          1 3EX      -0.134900
     18 C16          5.8190     1.3270     0.8190 cx         1 3EX      -0.094400
     19 C18          6.5580     2.5340     0.3070 cx         1 3EX      -0.118900
     20 C17          6.8290     1.1970    -0.2910 cx         1 3EX      -0.118900
     21 C3           1.1920    -2.5470     0.1570 ca         1 3EX       0.484200
     22 C2           0.1740    -4.5400     0.6650 ca         1 3EX       0.433200
     23 O1          -2.2200    -1.8390     0.7700 os         1 3EX      -0.164200
     24 C1          -1.0740    -3.9810     0.8610 ca         1 3EX      -0.259300
     25 O2          -2.4390     1.6770     0.2090 o          1 3EX      -0.592100
     26 C19         -6.7670     2.3750    -0.0970 c3         1 3EX       0.141400
     27 H1          -6.7760     4.2930     0.1510 ho         1 3EX       0.403000
     28 H2          -4.3270    -0.7250     1.1270 hn         1 3EX       0.350500
     29 H3          -5.0990     1.4930    -1.1310 h1         1 3EX       0.047200
     30 H4          -6.2810     0.3400    -0.4840 h1         1 3EX       0.047200
     31 H5           1.6190    -0.1680     2.0580 ha         1 3EX       0.146000
     32 H6           4.0200     0.1260     2.4180 ha         1 3EX       0.140000
     33 H7          -0.3030     1.4300    -0.3040 hn         1 3EX       0.480800
     34 H8           4.3270     2.1370    -1.3650 ha         1 3EX       0.152000
     35 H9           6.1390     0.9550     1.7860 hc         1 3EX       0.083700
     36 H10          5.9990     3.2550    -0.2770 hc         1 3EX       0.075200
     37 H11          7.3060     2.9720     0.9550 hc         1 3EX       0.075200
     38 H12          7.7650     0.7060    -0.0550 hc         1 3EX       0.075200
     39 H13          6.4590     0.9920    -1.2880 hc         1 3EX       0.075200
     40 H14          2.1000    -2.0320    -0.1310 h4         1 3EX       0.034100
     41 H15          0.3020    -5.6090     0.7860 h4         1 3EX       0.024100
     42 H16         -1.9330    -4.5810     1.1280 ha         1 3EX       0.159000
     43 H17         -7.3870     2.1570     0.7830 h1         1 3EX       0.025200
     44 H18         -7.4340     2.3360    -0.9670 h1         1 3EX       0.025200
     45 N3           0.2440     0.5960    -0.1440 nu         1 3EX      -0.611400
@<TRIPOS>BOND
     1     1     9 1   
     2     1    10 1   
     3     2     3 ar  
     4     2    23 1   
     5     2    24 ar  
     6     3     5 1   
     7     3    21 ar  
     8     4    26 1   
     9     4    27 1   
    10     5     7 2   
    11     5    45 1   
    12     6    21 ar  
    13     6    22 ar  
    14     7     8 1   
    15     7    23 1   
    16     8     9 1   
    17     8    25 2   
    18     9    28 1   
    19    10    26 1   
    20    10    29 1   
    21    10    30 1   
    22    11    12 ar  
    23    11    16 ar  
    24    11    45 1   
    25    12    13 ar  
    26    12    31 1   
    27    13    14 ar  
    28    13    32 1   
    29    14    15 ar  
    30    14    18 1   
    31    15    16 ar  
    32    15    34 1   
    33    16    17 1   
    34    18    19 1   
    35    18    20 1   
    36    18    35 1   
    37    19    20 1   
    38    19    36 1   
    39    19    37 1   
    40    20    38 1   
    41    20    39 1   
    42    21    40 1   
    43    22    24 ar  
    44    22    41 1   
    45    24    42 1   
    46    26    43 1   
    47    26    44 1   
    48    33    45 1   
@<TRIPOS>SUBSTRUCTURE
     1 3EX         1 TEMP              0 ****  ****    0 ROOT
