@<TRIPOS>MOLECULE
3EY
   46    49     1     0     0
SMALL
abcg2


@<TRIPOS>ATOM
      1 O3           7.3130     2.1970     0.9820 oh         1 3EY      -0.654000
      2 C4           1.8160    -1.0720     0.1970 cc         1 3EY      -0.319600
      3 C5          -0.3720    -2.1160     0.1510 cd         1 3EY      -0.220000
      4 C6          -0.7170    -4.2820     0.3790 cd         1 3EY       0.348700
      5 N1           0.2450    -3.3360     0.3800 na         1 3EY       0.079200
      6 C7          -1.7160    -2.4290     0.0170 cc         1 3EY      -0.034400
      7 C8           2.6890     0.1110     0.1370 c          1 3EY       0.629700
      8 N2          -1.9010    -3.7570     0.1630 nc         1 3EY      -0.560300
      9 C9          -1.4730     0.6150     0.0930 ca         1 3EY       0.221000
     10 C10         -2.0370     0.4420     1.3520 ca         1 3EY      -0.095000
     11 C11         -3.3490     0.8110     1.5980 ca         1 3EY      -0.113000
     12 C12         -4.1350     1.3940     0.6040 ca         1 3EY      -0.011300
     13 C13         -3.5660     1.5920    -0.6540 ca         1 3EY      -0.149000
     14 C14         -2.2650     1.2010    -0.8860 ca         1 3EY       0.174000
     15 C15         -5.5270     1.7960     0.9040 cx         1 3EY      -0.097400
     16 N4           3.9540    -0.0740     0.6050 ns         1 3EY      -0.362400
     17 F1          -1.7380     1.3910    -2.1030 f          1 3EY      -0.166000
     18 C17         -6.6000     1.7400    -0.1510 cx         1 3EY      -0.117400
     19 C16         -6.1040     3.0620     0.3250 cx         1 3EY      -0.117400
     20 C3           0.4340    -0.9330     0.0580 cd         1 3EY       0.471000
     21 C2           1.6100    -3.4790     0.4910 cd         1 3EY      -0.178000
     22 C1           2.3730    -2.3790     0.3940 cc         1 3EY      -0.060000
     23 O1           2.3420     1.1920    -0.3300 o          1 3EY      -0.612100
     24 O2           4.7520     1.0260     0.7050 os         1 3EY      -0.229100
     25 C18          5.7090     1.0520    -0.3530 c3         1 3EY       0.141600
     26 C19          6.5510     2.2910    -0.1980 c3         1 3EY       0.159600
     27 H1           7.8380     2.9980     1.0630 ho         1 3EY       0.444000
     28 H2          -0.4950    -5.3260     0.5330 h5         1 3EY       0.069800
     29 H3          -2.5420    -1.7650    -0.1740 h4         1 3EY       0.236000
     30 H4          -1.4420     0.0020     2.1430 ha         1 3EY       0.129000
     31 H5          -3.7640     0.6560     2.5860 ha         1 3EY       0.123000
     32 H6           0.5140     1.0060    -0.4030 hn         1 3EY       0.551000
     33 H7          -4.1240     2.0450    -1.4650 ha         1 3EY       0.135000
     34 H8          -5.8470     1.5530     1.9110 hc         1 3EY       0.084700
     35 H9           4.1500    -0.7630     1.3180 hn         1 3EY       0.329500
     36 H10         -6.3140     1.4100    -1.1420 hc         1 3EY       0.075700
     37 H11         -7.5840     1.4150     0.1600 hc         1 3EY       0.075700
     38 H12         -6.7440     3.6560     0.9640 hc         1 3EY       0.075700
     39 H13         -5.4690     3.6400    -0.3350 hc         1 3EY       0.075700
     40 H14          1.9880    -4.4810     0.6230 h4         1 3EY       0.147000
     41 H15          3.4440    -2.5170     0.4400 ha         1 3EY       0.125000
     42 H16          6.3350     0.1540    -0.3230 h1         1 3EY       0.047200
     43 H17          5.2070     1.0860    -1.3240 h1         1 3EY       0.047200
     44 H18          5.9040     3.1770    -0.2010 h1         1 3EY       0.031700
     45 H19          7.1820     2.3580    -1.0930 h1         1 3EY       0.031700
     46 N3          -0.1480     0.2610    -0.2030 nu         1 3EY      -0.963000
@<TRIPOS>BOND
     1     1    26 1   
     2     1    27 1   
     3     2     7 1   
     4     2    20 2   
     5     2    22 1   
     6     3     5 1   
     7     3     6 2   
     8     3    20 1   
     9     4     5 1   
    10     4     8 2   
    11     4    28 1   
    12     5    21 1   
    13     6     8 1   
    14     6    29 1   
    15     7    16 1   
    16     7    23 2   
    17     9    10 ar  
    18     9    14 ar  
    19     9    46 1   
    20    10    11 ar  
    21    10    30 1   
    22    11    12 ar  
    23    11    31 1   
    24    12    13 ar  
    25    12    15 1   
    26    13    14 ar  
    27    13    33 1   
    28    14    17 1   
    29    15    18 1   
    30    15    19 1   
    31    15    34 1   
    32    16    24 1   
    33    16    35 1   
    34    18    19 1   
    35    18    36 1   
    36    18    37 1   
    37    19    38 1   
    38    19    39 1   
    39    20    46 1   
    40    21    22 2   
    41    21    40 1   
    42    22    41 1   
    43    24    25 1   
    44    25    26 1   
    45    25    42 1   
    46    25    43 1   
    47    26    44 1   
    48    26    45 1   
    49    32    46 1   
@<TRIPOS>SUBSTRUCTURE
     1 3EY         1 TEMP              0 ****  ****    0 ROOT
