@<TRIPOS>MOLECULE
3EY
   46    49     1     0     0
SMALL
No Charge or Current Charge


@<TRIPOS>ATOM
      1 O3           7.3340     2.4780     0.5510 oh         1 3EY      -0.654000
      2 C4           1.7780    -1.2030     0.4600 cc         1 3EY      -0.319600
      3 C5          -0.2120    -2.4870     0.2420 cd         1 3EY      -0.220000
      4 C6          -0.4550    -4.6960     0.5970 cd         1 3EY       0.348700
      5 N1           0.3890    -3.6100     0.6920 na         1 3EY       0.079200
      6 C7          -1.4740    -2.8930    -0.1240 cc         1 3EY      -0.034400
      7 C8           2.5780     0.0540     0.3180 c          1 3EY       0.629700
      8 N2          -1.6190    -4.2530     0.1030 nc         1 3EY      -0.560300
      9 C9          -1.5640     0.3820    -0.0300 ca         1 3EY       0.221000
     10 C10         -2.3400    -0.1050     1.0400 ca         1 3EY      -0.095000
     11 C11         -3.6280     0.4060     1.2850 ca         1 3EY      -0.113000
     12 C12         -4.1650     1.4270     0.4770 ca         1 3EY      -0.011300
     13 C13         -3.3830     1.9380    -0.5790 ca         1 3EY      -0.149000
     14 C14         -2.0970     1.4280    -0.8240 ca         1 3EY       0.174000
     15 C15         -5.5500     1.9540     0.7660 cx         1 3EY      -0.097400
     16 N4           3.8960    -0.0410     0.7380 ns         1 3EY      -0.362400
     17 F1          -1.3690     1.9510    -1.8400 f          1 3EY      -0.166000
     18 C17         -6.4960     2.3880    -0.3340 cx         1 3EY      -0.117400
     19 C16         -5.9080     3.4160     0.6030 cx         1 3EY      -0.117400
     20 C3           0.4240    -1.2130     0.1510 cd         1 3EY       0.471000
     21 C2           1.7390    -3.6680     1.0220 cd         1 3EY      -0.178000
     22 C1           2.4060    -2.4530     0.9010 cc         1 3EY      -0.060000
     23 O1           2.1400     1.1020    -0.1450 o          1 3EY      -0.612100
     24 O2           4.7160     1.1430     0.7190 os         1 3EY      -0.229100
     25 C18          5.4750     1.2400    -0.5030 c3         1 3EY       0.141600
     26 C19          6.3180     2.5390    -0.4670 c3         1 3EY       0.159600
     27 H1           7.8040     3.3420     0.5380 ho         1 3EY       0.444000
     28 H2          -0.1750    -5.7050     0.8740 h5         1 3EY       0.069800
     29 H3          -2.2780    -2.3020    -0.5600 h4         1 3EY       0.236000
     30 H4          -1.9440    -0.8740     1.6970 ha         1 3EY       0.129000
     31 H5          -4.2070     0.0070     2.1150 ha         1 3EY       0.123000
     32 H6           0.3980     0.6160    -0.5660 hn         1 3EY       0.551000
     33 H7          -3.7600     2.7330    -1.2150 ha         1 3EY       0.135000
     34 H8          -6.0120     1.4480     1.6110 hc         1 3EY       0.084700
     35 H9           4.2830    -0.8630     1.1840 hn         1 3EY       0.329500
     36 H10         -6.1380     2.3710    -1.3600 hc         1 3EY       0.075700
     37 H11         -7.5490     2.1420    -0.2190 hc         1 3EY       0.075700
     38 H12         -6.5670     3.8590     1.3460 hc         1 3EY       0.075700
     39 H13         -5.1540     4.0930     0.2090 hc         1 3EY       0.075700
     40 H14          2.1700    -4.6140     1.3290 h4         1 3EY       0.147000
     41 H15          3.4640    -2.4660     1.1370 ha         1 3EY       0.125000
     42 H16          6.1400     0.3740    -0.6220 h1         1 3EY       0.047200
     43 H17          4.8030     1.2770    -1.3690 h1         1 3EY       0.047200
     44 H18          5.6490     3.3930    -0.2940 h1         1 3EY       0.031700
     45 H19          6.7820     2.6790    -1.4520 h1         1 3EY       0.031700
     46 N3          -0.2660    -0.1100    -0.2670 nu         1 3EY      -0.963000
@<TRIPOS>BOND
     1     1    26 1   
     2     1    27 1   
     3     2     7 1   
     4     2    20 2   
     5     2    22 1   
     6     3     5 1   
     7     3     6 2   
     8     3    20 1   
     9     4     5 1   
    10     4     8 2   
    11     4    28 1   
    12     5    21 1   
    13     6     8 1   
    14     6    29 1   
    15     7    16 1   
    16     7    23 2   
    17     9    10 ar  
    18     9    14 ar  
    19     9    46 1   
    20    10    11 ar  
    21    10    30 1   
    22    11    12 ar  
    23    11    31 1   
    24    12    13 ar  
    25    12    15 1   
    26    13    14 ar  
    27    13    33 1   
    28    14    17 1   
    29    15    18 1   
    30    15    19 1   
    31    15    34 1   
    32    16    24 1   
    33    16    35 1   
    34    18    19 1   
    35    18    36 1   
    36    18    37 1   
    37    19    38 1   
    38    19    39 1   
    39    20    46 1   
    40    21    22 2   
    41    21    40 1   
    42    22    41 1   
    43    24    25 1   
    44    25    26 1   
    45    25    42 1   
    46    25    43 1   
    47    26    44 1   
    48    26    45 1   
    49    32    46 1   
@<TRIPOS>SUBSTRUCTURE
     1 3EY         1 TEMP              0 ****  ****    0 ROOT
