@<TRIPOS>MOLECULE
3EZ
   74    79     1     0     0
SMALL
bcc


@<TRIPOS>ATOM
      1 NBA         11.5310    -0.3610     0.5540 nu         1 3EZ      -0.889700
      2 CAW         12.6230     0.3560     1.1830 c6         1 3EZ       0.220300
      3 CAS         12.0920     1.6150     1.8460 c6         1 3EZ      -0.130400
      4 CAU         11.2170     2.3680     0.8530 c6         1 3EZ       0.117800
      5 NAY         10.1950     1.5480     0.2360 n2         1 3EZ      -0.656400
      6 CBG         10.3980     0.2860     0.1720 ce         1 3EZ       0.668300
      7 CBM          9.3290    -0.5810    -0.3970 ca         1 3EZ      -0.109900
      8 CAQ          8.0020    -0.1830    -0.2550 ca         1 3EZ      -0.101500
      9 CAG          9.6370    -1.7640    -1.0610 ca         1 3EZ      -0.143000
     10 CAC          8.6130    -2.5510    -1.5700 ca         1 3EZ      -0.108500
     11 CAE          7.2940    -2.1680    -1.4220 ca         1 3EZ      -0.175500
     12 CBI          6.9770    -0.9760    -0.7640 ca         1 3EZ       0.064600
     13 NBC          5.6170    -0.6790    -0.6270 ns         1 3EZ      -0.471600
     14 CBE          5.0320     0.5080    -0.3260 c          1 3EZ       0.683700
     15 OAA          5.6450     1.5480    -0.1610 o          1 3EZ      -0.562100
     16 CBK          3.5440     0.4600    -0.2240 ca         1 3EZ      -0.150600
     17 CAJ          2.8210     1.6130    -0.5220 ca         1 3EZ      -0.090250
     18 CAN          1.4400     1.6170    -0.4360 ca         1 3EZ      -0.124500
     19 CAI          2.8550    -0.6780     0.1920 ca         1 3EZ      -0.090250
     20 CAM          1.4740    -0.6670     0.2890 ca         1 3EZ      -0.124500
     21 CBO          0.7430     0.4770    -0.0320 cp         1 3EZ      -0.018000
     22 CBP         -0.7290     0.4780     0.0590 cp         1 3EZ      -0.018000
     23 CAP         -1.4230     1.6160     0.4740 ca         1 3EZ      -0.124500
     24 CAL         -2.8040     1.6140     0.5570 ca         1 3EZ      -0.090250
     25 CAO         -1.4620    -0.6610    -0.2740 ca         1 3EZ      -0.124500
     26 CAK         -2.8430    -0.6690    -0.1780 ca         1 3EZ      -0.090250
     27 CBL         -3.5290     0.4660     0.2470 ca         1 3EZ      -0.150600
     28 CBF         -5.0180     0.5180     0.3470 c          1 3EZ       0.683700
     29 OAB         -5.6270     1.5620     0.1930 o          1 3EZ      -0.562100
     30 NBD         -5.6070    -0.6700     0.6320 ns         1 3EZ      -0.471600
     31 CBJ         -6.9700    -0.9610     0.7670 ca         1 3EZ       0.064600
     32 CAR         -7.9890    -0.1670     0.2490 ca         1 3EZ      -0.101500
     33 CAF         -7.2940    -2.1470     1.4310 ca         1 3EZ      -0.175500
     34 CAD         -8.6160    -2.5250     1.5750 ca         1 3EZ      -0.108500
     35 CAH         -9.6340    -1.7370     1.0570 ca         1 3EZ      -0.143000
     36 CBN         -9.3180    -0.5580     0.3870 ca         1 3EZ      -0.109900
     37 CBH        -10.3810     0.3100    -0.1910 ce         1 3EZ       0.668300
     38 NAZ        -10.1750     1.5710    -0.2560 n2         1 3EZ      -0.656400
     39 CAV        -11.1910     2.3920    -0.8820 c6         1 3EZ       0.117800
     40 CAT        -12.0590     1.6390    -1.8810 c6         1 3EZ      -0.130400
     41 CAX        -12.5980     0.3810    -1.2210 c6         1 3EZ       0.220300
     42 NBB        -11.5120    -0.3350    -0.5820 nu         1 3EZ      -0.889700
     43 H1          11.4700    -1.3500     0.7270 hn         1 3EZ       0.426800
     44 H2          13.0960    -0.3040     1.9100 h1         1 3EZ       0.041450
     45 H3          13.3860     0.6120     0.4420 h1         1 3EZ       0.041450
     46 H4          11.5050     1.3430     2.7270 hc         1 3EZ       0.051950
     47 H5          12.9180     2.2400     2.1860 hc         1 3EZ       0.051950
     48 H6          10.7270     3.2090     1.3490 h1         1 3EZ       0.055700
     49 H7          11.8490     2.8110     0.0740 h1         1 3EZ       0.055700
     50 H8           7.7920     0.7380     0.2630 ha         1 3EZ       0.184000
     51 H9          10.6650    -2.0710    -1.2040 ha         1 3EZ       0.136000
     52 H10          8.8460    -3.4700    -2.0910 ha         1 3EZ       0.132000
     53 H11          6.5020    -2.7930    -1.8170 ha         1 3EZ       0.127000
     54 H12          4.9970    -1.4300    -0.8920 hn         1 3EZ       0.318500
     55 H13          3.3370     2.5070    -0.8430 ha         1 3EZ       0.145000
     56 H14          0.9000     2.5140    -0.7100 ha         1 3EZ       0.139000
     57 H15          3.3860    -1.5770     0.4810 ha         1 3EZ       0.145000
     58 H16          0.9670    -1.5540     0.6440 ha         1 3EZ       0.139000
     59 H17         -0.8810     2.5090     0.7570 ha         1 3EZ       0.139000
     60 H18         -3.3180     2.5070     0.8860 ha         1 3EZ       0.145000
     61 H19         -0.9570    -1.5460    -0.6360 ha         1 3EZ       0.139000
     62 H20         -3.3750    -1.5640    -0.4760 ha         1 3EZ       0.145000
     63 H21         -4.9920    -1.4260     0.8910 hn         1 3EZ       0.318500
     64 H22         -7.7730     0.7500    -0.2740 ha         1 3EZ       0.184000
     65 H23         -6.5060    -2.7730     1.8340 ha         1 3EZ       0.127000
     66 H24         -8.8540    -3.4400     2.1000 ha         1 3EZ       0.132000
     67 H25        -10.6640    -2.0380     1.1960 ha         1 3EZ       0.136000
     68 H26        -11.8270     2.8380    -0.1090 h1         1 3EZ       0.055700
     69 H27        -10.6960     3.2320    -1.3770 h1         1 3EZ       0.055700
     70 H28        -12.8830     2.2640    -2.2270 hc         1 3EZ       0.051950
     71 H29        -11.4670     1.3650    -2.7570 hc         1 3EZ       0.051950
     72 H30        -13.3670     0.6390    -0.4860 h1         1 3EZ       0.041450
     73 H31        -13.0650    -0.2790    -1.9510 h1         1 3EZ       0.041450
     74 H32        -11.4550    -1.3270    -0.7430 hn         1 3EZ       0.426800
@<TRIPOS>BOND
     1     1     2 1   
     2     1     6 1   
     3     1    43 1   
     4     2     3 1   
     5     2    44 1   
     6     2    45 1   
     7     3     4 1   
     8     3    46 1   
     9     3    47 1   
    10     4     5 1   
    11     4    48 1   
    12     4    49 1   
    13     5     6 2   
    14     6     7 1   
    15     7     8 ar  
    16     7     9 ar  
    17     8    12 ar  
    18     8    50 1   
    19     9    10 ar  
    20     9    51 1   
    21    10    11 ar  
    22    10    52 1   
    23    11    12 ar  
    24    11    53 1   
    25    12    13 1   
    26    13    14 1   
    27    13    54 1   
    28    14    15 2   
    29    14    16 1   
    30    16    17 ar  
    31    16    19 ar  
    32    17    18 ar  
    33    17    55 1   
    34    18    21 ar  
    35    18    56 1   
    36    19    20 ar  
    37    19    57 1   
    38    20    21 ar  
    39    20    58 1   
    40    21    22 1   
    41    22    23 ar  
    42    22    25 ar  
    43    23    24 ar  
    44    23    59 1   
    45    24    27 ar  
    46    24    60 1   
    47    25    26 ar  
    48    25    61 1   
    49    26    27 ar  
    50    26    62 1   
    51    27    28 1   
    52    28    29 2   
    53    28    30 1   
    54    30    31 1   
    55    30    63 1   
    56    31    32 ar  
    57    31    33 ar  
    58    32    36 ar  
    59    32    64 1   
    60    33    34 ar  
    61    33    65 1   
    62    34    35 ar  
    63    34    66 1   
    64    35    36 ar  
    65    35    67 1   
    66    36    37 1   
    67    37    38 2   
    68    37    42 1   
    69    38    39 1   
    70    39    40 1   
    71    39    68 1   
    72    39    69 1   
    73    40    41 1   
    74    40    70 1   
    75    40    71 1   
    76    41    42 1   
    77    41    72 1   
    78    41    73 1   
    79    42    74 1   
@<TRIPOS>SUBSTRUCTURE
     1 3EZ         1 TEMP              0 ****  ****    0 ROOT
