@<TRIPOS>MOLECULE
3EZ
   74    79     1     0     0
SMALL
No Charge or Current Charge


@<TRIPOS>ATOM
      1 NBA         11.9060    -0.0130     0.5930 nu         1 3EZ      -0.944900
      2 CAW         12.9880     0.9760     0.4580 c6         1 3EZ       0.220300
      3 CAS         12.4160     2.2870    -0.1070 c6         1 3EZ      -0.130400
      4 CAU         11.5200     1.9800    -1.3210 c6         1 3EZ       0.117800
      5 NAY         10.4780     0.9850    -0.9980 n2         1 3EZ      -0.656400
      6 CBG         10.6840     0.0960    -0.0780 ce         1 3EZ       0.668300
      7 CBM          9.5500    -0.7460     0.4420 ca         1 3EZ      -0.109900
      8 CAQ          8.2060    -0.3330     0.2640 ca         1 3EZ      -0.083500
      9 CAG          9.7950    -2.0010     1.0490 ca         1 3EZ      -0.125000
     10 CAC          8.7300    -2.7990     1.4940 ca         1 3EZ      -0.090500
     11 CAE          7.4070    -2.3640     1.3320 ca         1 3EZ      -0.157500
     12 CBI          7.1300    -1.1290     0.7190 ca         1 3EZ      -0.028000
     13 NBC          5.7620    -0.7640     0.5780 ns         1 3EZ      -0.145500
     14 CBE          5.1400     0.4120     0.1720 c          1 3EZ       0.616700
     15 OAA          5.7580     1.4280    -0.1270 o          1 3EZ      -0.562100
     16 CBK          3.6210     0.3760     0.1290 ca         1 3EZ      -0.150600
     17 CAJ          2.9090     1.5310    -0.2660 ca         1 3EZ      -0.072250
     18 CAN          1.5050     1.5310    -0.3160 ca         1 3EZ      -0.106500
     19 CAI          2.8800    -0.7810     0.4710 ca         1 3EZ      -0.072250
     20 CAM          1.4760    -0.7750     0.4180 ca         1 3EZ      -0.106500
     21 CBO          0.7570     0.3790     0.0240 cp         1 3EZ      -0.018000
     22 CBP         -0.7410     0.3810    -0.0310 cp         1 3EZ      -0.018000
     23 CAP         -1.4860     1.5370     0.3030 ca         1 3EZ      -0.106500
     24 CAL         -2.8900     1.5400     0.2530 ca         1 3EZ      -0.072250
     25 CAO         -1.4630    -0.7730    -0.4180 ca         1 3EZ      -0.106500
     26 CAK         -2.8670    -0.7760    -0.4720 ca         1 3EZ      -0.072250
     27 CBL         -3.6050     0.3850    -0.1360 ca         1 3EZ      -0.150600
     28 CBF         -5.1240     0.4240    -0.1790 c          1 3EZ       0.616700
     29 OAB         -5.7390     1.4440     0.1150 o          1 3EZ      -0.562100
     30 NBD         -5.7490    -0.7530    -0.5780 ns         1 3EZ      -0.145500
     31 CBJ         -7.1180    -1.1150    -0.7170 ca         1 3EZ      -0.028000
     32 CAR         -8.1920    -0.3140    -0.2650 ca         1 3EZ      -0.083500
     33 CAF         -7.3990    -2.3510    -1.3240 ca         1 3EZ      -0.157500
     34 CAD         -8.7230    -2.7840    -1.4830 ca         1 3EZ      -0.090500
     35 CAH         -9.7850    -1.9810    -1.0400 ca         1 3EZ      -0.125000
     36 CBN         -9.5360    -0.7240    -0.4400 ca         1 3EZ      -0.109900
     37 CBH        -10.6680     0.1230     0.0770 ce         1 3EZ       0.668300
     38 NAZ        -10.4600     1.0160     0.9930 n2         1 3EZ      -0.656400
     39 CAV        -11.4980     2.0150     1.3120 c6         1 3EZ       0.117800
     40 CAT        -12.3950     2.3190     0.0970 c6         1 3EZ      -0.130400
     41 CAX        -12.9710     1.0060    -0.4600 c6         1 3EZ       0.220300
     42 NBB        -11.8920     0.0140    -0.5930 nu         1 3EZ      -0.944900
     43 H1          11.8760    -0.5900     1.4300 hn         1 3EZ       0.482000
     44 H2          13.4710     1.1680     1.4270 h1         1 3EZ       0.041450
     45 H3          13.7590     0.5920    -0.2270 h1         1 3EZ       0.041450
     46 H4          11.8270     2.7990     0.6680 hc         1 3EZ       0.051950
     47 H5          13.2290     2.9680    -0.3900 hc         1 3EZ       0.051950
     48 H6          11.0390     2.9050    -1.6720 h1         1 3EZ       0.055700
     49 H7          12.1360     1.5900    -2.1450 h1         1 3EZ       0.055700
     50 H8           8.0170     0.6150    -0.2300 ha         1 3EZ       0.166000
     51 H9          10.8100    -2.3740     1.1640 ha         1 3EZ       0.118000
     52 H10          8.9320    -3.7610     1.9600 ha         1 3EZ       0.114000
     53 H11          6.5920    -2.9940     1.6820 ha         1 3EZ       0.109000
     54 H12          5.1210    -1.5070     0.8180 hn         1 3EZ       0.152000
     55 H13          3.4420     2.4400    -0.5400 ha         1 3EZ       0.127000
     56 H14          0.9930     2.4350    -0.6370 ha         1 3EZ       0.121000
     57 H15          3.3730    -1.6990     0.7850 ha         1 3EZ       0.127000
     58 H16          0.9380    -1.6760     0.7000 ha         1 3EZ       0.121000
     59 H17         -0.9710     2.4410     0.6190 ha         1 3EZ       0.121000
     60 H18         -3.4210     2.4520     0.5220 ha         1 3EZ       0.127000
     61 H19         -0.9270    -1.6780    -0.6960 ha         1 3EZ       0.121000
     62 H20         -3.3630    -1.6940    -0.7800 ha         1 3EZ       0.127000
     63 H21         -5.1100    -1.4990    -0.8150 hn         1 3EZ       0.152000
     64 H22         -8.0000     0.6360     0.2250 ha         1 3EZ       0.166000
     65 H23         -6.5860    -2.9860    -1.6710 ha         1 3EZ       0.109000
     66 H24         -8.9270    -3.7480    -1.9440 ha         1 3EZ       0.114000
     67 H25        -10.8010    -2.3520    -1.1530 ha         1 3EZ       0.118000
     68 H26        -12.1150     1.6300     2.1390 h1         1 3EZ       0.055700
     69 H27        -11.0150     2.9400     1.6590 h1         1 3EZ       0.055700
     70 H28        -13.2070     3.0020     0.3790 hc         1 3EZ       0.051950
     71 H29        -11.8060     2.8250    -0.6800 hc         1 3EZ       0.051950
     72 H30        -13.7420     0.6270     0.2270 h1         1 3EZ       0.041450
     73 H31        -13.4550     1.1940    -1.4300 h1         1 3EZ       0.041450
     74 H32        -11.8630    -0.5670    -1.4260 hn         1 3EZ       0.482000
@<TRIPOS>BOND
     1     1     2 1   
     2     1     6 1   
     3     1    43 1   
     4     2     3 1   
     5     2    44 1   
     6     2    45 1   
     7     3     4 1   
     8     3    46 1   
     9     3    47 1   
    10     4     5 1   
    11     4    48 1   
    12     4    49 1   
    13     5     6 2   
    14     6     7 1   
    15     7     8 ar  
    16     7     9 ar  
    17     8    12 ar  
    18     8    50 1   
    19     9    10 ar  
    20     9    51 1   
    21    10    11 ar  
    22    10    52 1   
    23    11    12 ar  
    24    11    53 1   
    25    12    13 1   
    26    13    14 1   
    27    13    54 1   
    28    14    15 2   
    29    14    16 1   
    30    16    17 ar  
    31    16    19 ar  
    32    17    18 ar  
    33    17    55 1   
    34    18    21 ar  
    35    18    56 1   
    36    19    20 ar  
    37    19    57 1   
    38    20    21 ar  
    39    20    58 1   
    40    21    22 1   
    41    22    23 ar  
    42    22    25 ar  
    43    23    24 ar  
    44    23    59 1   
    45    24    27 ar  
    46    24    60 1   
    47    25    26 ar  
    48    25    61 1   
    49    26    27 ar  
    50    26    62 1   
    51    27    28 1   
    52    28    29 2   
    53    28    30 1   
    54    30    31 1   
    55    30    63 1   
    56    31    32 ar  
    57    31    33 ar  
    58    32    36 ar  
    59    32    64 1   
    60    33    34 ar  
    61    33    65 1   
    62    34    35 ar  
    63    34    66 1   
    64    35    36 ar  
    65    35    67 1   
    66    36    37 1   
    67    37    38 2   
    68    37    42 1   
    69    38    39 1   
    70    39    40 1   
    71    39    68 1   
    72    39    69 1   
    73    40    41 1   
    74    40    70 1   
    75    40    71 1   
    76    41    42 1   
    77    41    72 1   
    78    41    73 1   
    79    42    74 1   
@<TRIPOS>SUBSTRUCTURE
     1 3EZ         1 TEMP              0 ****  ****    0 ROOT
