@<TRIPOS>MOLECULE
3F0
   16    16     1     0     0
SMALL
bcc


@<TRIPOS>ATOM
      1 OAB          2.3050    -1.3540    -0.1260 o          1 3F0      -0.829800
      2 CAH          2.0580    -0.1290    -0.0100 c          1 3F0       0.933200
      3 OAC          2.9100     0.7730     0.0600 o          1 3F0      -0.829800
      4 CAK          0.5970     0.2960     0.0320 ca         1 3F0      -0.194600
      5 CAG          0.2970     1.6590     0.0130 ca         1 3F0      -0.077000
      6 CAE         -1.0020     2.1340     0.0070 ca         1 3F0      -0.201000
      7 CAF         -2.0550     1.2240     0.0210 ca         1 3F0      -0.147000
      8 CAJ         -1.7650    -0.1170     0.0510 ca         1 3F0       0.000900
      9 FAD         -2.7830    -1.0090     0.0690 f          1 3F0      -0.184900
     10 CAI         -0.4630    -0.6370     0.0590 ca         1 3F0       0.164600
     11 NAA         -0.2730    -1.9900     0.1470 nv         1 3F0      -0.843200
     12 H2           1.1200     2.3610    -0.0030 ha         1 3F0       0.146000
     13 H3          -1.2020     3.1970    -0.0120 ha         1 3F0       0.108000
     14 H4          -3.0880     1.5510     0.0140 ha         1 3F0       0.114000
     15 H5          -0.9940    -2.5800    -0.2350 hn         1 3F0       0.419800
     16 H6           0.6800    -2.2550    -0.0730 hn         1 3F0       0.419800
@<TRIPOS>BOND
     1     1     2 1   
     2     2     3 1   
     3     2     4 1   
     4     4     5 ar  
     5     4    10 ar  
     6     5     6 ar  
     7     5    12 1   
     8     6     7 ar  
     9     6    13 1   
    10     7     8 ar  
    11     7    14 1   
    12     8     9 1   
    13     8    10 ar  
    14    10    11 1   
    15    11    15 1   
    16    11    16 1   
@<TRIPOS>SUBSTRUCTURE
     1 3F0         1 TEMP              0 ****  ****    0 ROOT
