@<TRIPOS>MOLECULE
3F0
   16    16     1     0     0
SMALL
No Charge or Current Charge


@<TRIPOS>ATOM
      1 OAB          2.3650    -1.1490    -0.6260 o          1 3F0      -0.724500
      2 CAH          2.0500    -0.1500     0.0080 c          1 3F0       0.722600
      3 OAC          2.8630     0.5430     0.6020 o          1 3F0      -0.724500
      4 CAK          0.6080     0.2960     0.0100 ca         1 3F0      -0.194600
      5 CAG          0.3190     1.6800    -0.0480 ca         1 3F0      -0.059000
      6 CAE         -1.0080     2.1420    -0.0460 ca         1 3F0      -0.183000
      7 CAF         -2.0690     1.2280     0.0160 ca         1 3F0      -0.129000
      8 CAJ         -1.7990    -0.1480     0.0800 ca         1 3F0       0.036000
      9 FAD         -2.8430    -1.0120     0.1390 f          1 3F0      -0.220000
     10 CAI         -0.4630    -0.6250     0.0800 ca         1 3F0       0.303000
     11 NAA         -0.2210    -1.9780     0.1530 nv         1 3F0      -1.092000
     12 H2           1.1310     2.4040    -0.1000 ha         1 3F0       0.128000
     13 H3          -1.2110     3.2090    -0.0950 ha         1 3F0       0.090000
     14 H4          -3.0970     1.5830     0.0160 ha         1 3F0       0.096000
     15 H5          -0.9930    -2.6140    -0.0360 hn         1 3F0       0.475000
     16 H6           0.7100    -2.2850    -0.1390 hn         1 3F0       0.475000
@<TRIPOS>BOND
     1     1     2 1   
     2     2     3 1   
     3     2     4 1   
     4     4     5 ar  
     5     4    10 ar  
     6     5     6 ar  
     7     5    12 1   
     8     6     7 ar  
     9     6    13 1   
    10     7     8 ar  
    11     7    14 1   
    12     8     9 1   
    13     8    10 ar  
    14    10    11 1   
    15    11    15 1   
    16    11    16 1   
@<TRIPOS>SUBSTRUCTURE
     1 3F0         1 TEMP              0 ****  ****    0 ROOT
