@<TRIPOS>MOLECULE
3F1
   48    50     1     0     0
SMALL
No Charge or Current Charge


@<TRIPOS>ATOM
      1 C1           5.8560     3.4010     0.8640 c3         1 3F1      -0.054800
      2 C2           5.2770     2.1860     0.1570 ca         1 3F1      -0.039300
      3 C3           5.8020     0.9040     0.4020 ca         1 3F1      -0.139500
      4 C4           5.2660    -0.2220    -0.2460 ca         1 3F1      -0.009500
      5 O5           2.9100    -1.0530    -3.2480 o          1 3F1      -0.559500
      6 C6           1.8100    -2.7000     1.4930 c3         1 3F1      -0.033800
      7 C7           4.2040     2.3320    -0.7420 ca         1 3F1      -0.139500
      8 C8           3.6630     1.2110    -1.3940 ca         1 3F1      -0.009500
      9 C9           4.1920    -0.0730    -1.1490 ca         1 3F1      -0.279500
     10 S10          3.4830    -1.5210    -1.9770 sy         1 3F1       1.192100
     11 N11          2.2250    -1.9790    -0.9760 ne         1 3F1      -0.522200
     12 S12          1.9810    -1.1710     0.4480 sx         1 3F1       0.038800
     13 C13          0.2000    -0.7650     0.2720 ca         1 3F1      -0.129500
     14 C14         -0.6950    -1.6250    -0.3940 ca         1 3F1       0.007000
     15 C15         -2.0520    -1.2750    -0.5020 ca         1 3F1      -0.185500
     16 O16          4.5020    -2.5800    -1.9510 o          1 3F1      -0.559500
     17 C17         -0.2690     0.4390     0.8260 ca         1 3F1       0.007000
     18 C18         -1.6270     0.7870     0.7160 ca         1 3F1      -0.185500
     19 C19         -2.5250    -0.0740     0.0480 ca         1 3F1       0.198100
     20 O20         -3.8660     0.2120    -0.0920 os         1 3F1      -0.333100
     21 C21         -4.4520     1.4150     0.4330 c3         1 3F1       0.208900
     22 C22         -5.9380     1.4110     0.1030 ca         1 3F1      -0.102300
     23 C23         -6.8640     0.8390     0.9990 ca         1 3F1      -0.083500
     24 C24         -8.2360     0.8360     0.6940 ca         1 3F1      -0.113000
     25 C25         -6.4010     1.9780    -1.1010 ca         1 3F1      -0.083500
     26 C26         -7.7730     1.9740    -1.4050 ca         1 3F1      -0.113000
     27 C27         -8.6920     1.4040    -0.5080 ca         1 3F1      -0.094000
     28 H1           6.9210     3.2650     1.0860 hc         1 3F1       0.043367
     29 H1A          5.7610     4.3040     0.2500 hc         1 3F1       0.043367
     30 H1B          5.3370     3.5840     1.8130 hc         1 3F1       0.043367
     31 H3           6.6270     0.7770     1.0980 ha         1 3F1       0.111500
     32 H4           5.6840    -1.2060    -0.0390 ha         1 3F1       0.135000
     33 H6           2.7930    -3.1770     1.5770 h1         1 3F1       0.100033
     34 H6A          1.4470    -2.4050     2.4840 h1         1 3F1       0.100033
     35 H6B          1.0980    -3.3850     1.0190 h1         1 3F1       0.100033
     36 H7           3.7850     3.3170    -0.9350 ha         1 3F1       0.111500
     37 H8           2.8290     1.3440    -2.0820 ha         1 3F1       0.135000
     38 H14         -0.3490    -2.5620    -0.8250 ha         1 3F1       0.129500
     39 H15         -2.7420    -1.9390    -1.0150 ha         1 3F1       0.132000
     40 H17          0.4200     1.1050     1.3400 ha         1 3F1       0.129500
     41 H18         -1.9600     1.7240     1.1530 ha         1 3F1       0.132000
     42 H21         -4.3190     1.4670     1.5220 h1         1 3F1       0.046200
     43 H21A        -3.9810     2.3010    -0.0120 h1         1 3F1       0.046200
     44 H23         -6.5190     0.3950     1.9310 ha         1 3F1       0.113500
     45 H24         -8.9460     0.3930     1.3890 ha         1 3F1       0.117000
     46 H25         -5.6960     2.4190    -1.8030 ha         1 3F1       0.113500
     47 H26         -8.1250     2.4130    -2.3370 ha         1 3F1       0.117000
     48 H27         -9.7540     1.4010    -0.7430 ha         1 3F1       0.116000
@<TRIPOS>BOND
     1     1     2 1   
     2     1    28 1   
     3     1    29 1   
     4     1    30 1   
     5     2     3 ar  
     6     2     7 ar  
     7     3     4 ar  
     8     3    31 1   
     9     4     9 ar  
    10     4    32 1   
    11     5    10 2   
    12     6    12 1   
    13     6    33 1   
    14     6    34 1   
    15     6    35 1   
    16     7     8 ar  
    17     7    36 1   
    18     8     9 ar  
    19     8    37 1   
    20     9    10 1   
    21    10    11 1   
    22    10    16 2   
    23    11    12 2   
    24    12    13 1   
    25    13    14 ar  
    26    13    17 ar  
    27    14    15 ar  
    28    14    38 1   
    29    15    19 ar  
    30    15    39 1   
    31    17    18 ar  
    32    17    40 1   
    33    18    19 ar  
    34    18    41 1   
    35    19    20 1   
    36    20    21 1   
    37    21    22 1   
    38    21    42 1   
    39    21    43 1   
    40    22    23 ar  
    41    22    25 ar  
    42    23    24 ar  
    43    23    44 1   
    44    24    27 ar  
    45    24    45 1   
    46    25    26 ar  
    47    25    46 1   
    48    26    27 ar  
    49    26    47 1   
    50    27    48 1   
@<TRIPOS>SUBSTRUCTURE
     1 3F1         1 TEMP              0 ****  ****    0 ROOT
