@<TRIPOS>MOLECULE
3F1
   48    50     1     0     0
SMALL
abcg2


@<TRIPOS>ATOM
      1 C1           0.5570     3.7140    -0.1910 c3         1 3F1      -0.054800
      2 C2           1.2960     2.4300    -0.4220 ca         1 3F1      -0.039300
      3 C3           2.4720     2.1550     0.2800 ca         1 3F1      -0.139500
      4 C4           3.1520     0.9660     0.0950 ca         1 3F1      -0.009500
      5 O5           2.7540    -2.3270    -1.9420 o          1 3F1      -0.559500
      6 C6           2.2960    -4.5110     0.3070 c3         1 3F1      -0.033800
      7 C7           0.8260     1.4790    -1.3200 ca         1 3F1      -0.139500
      8 C8           1.4970     0.2780    -1.5150 ca         1 3F1      -0.009500
      9 C9           2.6530     0.0250    -0.8000 ca         1 3F1      -0.279500
     10 S10          3.5500    -1.4920    -1.0380 sy         1 3F1       1.192100
     11 N11          3.7410    -2.1280     0.4360 ne         1 3F1      -0.522200
     12 S12          2.5340    -2.9460     1.1590 sx         1 3F1       0.038800
     13 C13          0.9910    -2.1050     0.9110 ca         1 3F1      -0.129500
     14 C14          0.0510    -2.4560    -0.0520 ca         1 3F1       0.007000
     15 C15         -1.0730    -1.6750    -0.2210 ca         1 3F1      -0.185500
     16 O16          4.8940    -1.1210    -1.4720 o          1 3F1      -0.559500
     17 C17          0.7940    -0.9830     1.7040 ca         1 3F1       0.007000
     18 C18         -0.3210    -0.1850     1.5230 ca         1 3F1      -0.185500
     19 C19         -1.2540    -0.5190     0.5430 ca         1 3F1       0.198100
     20 O20         -2.3450     0.2070     0.2640 os         1 3F1      -0.333100
     21 C21         -2.5460     1.4380     0.9520 c3         1 3F1       0.208900
     22 C22         -3.7280     2.1110     0.3260 ca         1 3F1      -0.102300
     23 C23         -4.9770     2.0630     0.9360 ca         1 3F1      -0.083500
     24 C24         -6.0770     2.6680     0.3420 ca         1 3F1      -0.113000
     25 C25         -3.5960     2.7710    -0.8930 ca         1 3F1      -0.083500
     26 C26         -4.6910     3.3760    -1.4900 ca         1 3F1      -0.113000
     27 C27         -5.9360     3.3240    -0.8730 ca         1 3F1      -0.094000
     28 H1           1.2160     4.5770    -0.2940 hc         1 3F1       0.043367
     29 H1A         -0.2670     3.8340    -0.8930 hc         1 3F1       0.043367
     30 H1B          0.1430     3.7490     0.8190 hc         1 3F1       0.043367
     31 H3           2.8600     2.8820     0.9830 ha         1 3F1       0.111500
     32 H4           4.0530     0.7690     0.6620 ha         1 3F1       0.135000
     33 H6           3.2390    -5.0450     0.4060 h1         1 3F1       0.100033
     34 H6A          1.5150    -5.0580     0.8310 h1         1 3F1       0.100033
     35 H6B          2.0500    -4.3750    -0.7400 h1         1 3F1       0.100033
     36 H7          -0.0830     1.6690    -1.8790 ha         1 3F1       0.111500
     37 H8           1.1020    -0.4510    -2.2090 ha         1 3F1       0.135000
     38 H14          0.1760    -3.3280    -0.6770 ha         1 3F1       0.129500
     39 H15         -1.8080    -1.9400    -0.9700 ha         1 3F1       0.132000
     40 H17          1.5200    -0.7080     2.4590 ha         1 3F1       0.129500
     41 H18         -0.4340     0.6880     2.1500 ha         1 3F1       0.132000
     42 H21         -2.7200     1.2550     2.0170 h1         1 3F1       0.046200
     43 H21A        -1.6540     2.0670     0.8640 h1         1 3F1       0.046200
     44 H23         -5.0920     1.5500     1.8840 ha         1 3F1       0.113500
     45 H24         -7.0430     2.6240     0.8270 ha         1 3F1       0.117000
     46 H25         -2.6280     2.8220    -1.3790 ha         1 3F1       0.113500
     47 H26         -4.5740     3.8910    -2.4350 ha         1 3F1       0.117000
     48 H27         -6.7910     3.7990    -1.3360 ha         1 3F1       0.116000
@<TRIPOS>BOND
     1     1     2 1   
     2     1    28 1   
     3     1    29 1   
     4     1    30 1   
     5     2     3 ar  
     6     2     7 ar  
     7     3     4 ar  
     8     3    31 1   
     9     4     9 ar  
    10     4    32 1   
    11     5    10 2   
    12     6    12 1   
    13     6    33 1   
    14     6    34 1   
    15     6    35 1   
    16     7     8 ar  
    17     7    36 1   
    18     8     9 ar  
    19     8    37 1   
    20     9    10 1   
    21    10    11 1   
    22    10    16 2   
    23    11    12 2   
    24    12    13 1   
    25    13    14 ar  
    26    13    17 ar  
    27    14    15 ar  
    28    14    38 1   
    29    15    19 ar  
    30    15    39 1   
    31    17    18 ar  
    32    17    40 1   
    33    18    19 ar  
    34    18    41 1   
    35    19    20 1   
    36    20    21 1   
    37    21    22 1   
    38    21    42 1   
    39    21    43 1   
    40    22    23 ar  
    41    22    25 ar  
    42    23    24 ar  
    43    23    44 1   
    44    24    27 ar  
    45    24    45 1   
    46    25    26 ar  
    47    25    46 1   
    48    26    27 ar  
    49    26    47 1   
    50    27    48 1   
@<TRIPOS>SUBSTRUCTURE
     1 3F1         1 TEMP              0 ****  ****    0 ROOT
