@<TRIPOS>MOLECULE
3F2
   68    73     1     0     0
SMALL
abcg2


@<TRIPOS>ATOM
      1 NAY        -11.6900     0.5250     0.1300 nu         1 3F2      -0.893400
      2 CAU        -12.3060     1.7850     0.5310 c5         1 3F2       0.152300
      3 CAS        -11.2580     2.7940     0.0230 c5         1 3F2       0.085800
      4 NAW        -10.0340     2.0250    -0.1690 n2         1 3F2      -0.612400
      5 CBE        -10.3590     0.7920    -0.0890 ce         1 3F2       0.611300
      6 CBK         -9.3990    -0.3120    -0.2680 ca         1 3F2      -0.103900
      7 CAQ         -8.0370    -0.0360    -0.1540 ca         1 3F2      -0.087500
      8 CAG         -9.8370    -1.6000    -0.5590 ca         1 3F2      -0.118000
      9 CAC         -8.9020    -2.6110    -0.7360 ca         1 3F2      -0.090500
     10 CAE         -7.5510    -2.3470    -0.6190 ca         1 3F2      -0.155000
     11 CBG         -7.1050    -1.0540    -0.3250 ca         1 3F2      -0.027000
     12 NBA         -5.7210    -0.8750    -0.2450 ns         1 3F2      -0.144000
     13 CBC         -5.0250     0.1860     0.2380 c          1 3F2       0.618200
     14 OAA         -5.5430     1.1740     0.7290 o          1 3F2      -0.565100
     15 CBI         -3.5410     0.0590     0.1420 ca         1 3F2      -0.150600
     16 CAJ         -2.7600     0.7420     1.0720 ca         1 3F2      -0.071250
     17 CAN         -1.3800     0.6720     1.0180 ca         1 3F2      -0.106750
     18 CAI         -2.9070    -0.6730    -0.8590 ca         1 3F2      -0.071250
     19 CAM         -1.5250    -0.7310    -0.9190 ca         1 3F2      -0.106750
     20 CBM         -0.7380    -0.0650     0.0210 cp         1 3F2      -0.017000
     21 CBN          0.7330    -0.1340    -0.0450 cp         1 3F2      -0.017000
     22 CAP          1.5200     0.9650     0.3010 ca         1 3F2      -0.106750
     23 CAL          2.9010     0.9040     0.2220 ca         1 3F2      -0.071250
     24 CAO          1.3760    -1.3050    -0.4540 ca         1 3F2      -0.106750
     25 CAK          2.7550    -1.3730    -0.5180 ca         1 3F2      -0.071250
     26 CBJ          3.5340    -0.2640    -0.1980 ca         1 3F2      -0.150600
     27 CBD          5.0180    -0.3970    -0.2860 c          1 3F2       0.618200
     28 OAB          5.5640    -1.4770    -0.1480 o          1 3F2      -0.565100
     29 NBB          5.6810     0.7600    -0.5480 ns         1 3F2      -0.144000
     30 CBH          7.0570     0.9540    -0.7030 ca         1 3F2      -0.027000
     31 CAR          8.0240     0.0740    -0.2290 ca         1 3F2      -0.087500
     32 CAF          7.4580     2.1250    -1.3530 ca         1 3F2      -0.155000
     33 CAD          8.8000     2.4010    -1.5320 ca         1 3F2      -0.090500
     34 CAH          9.7680     1.5210    -1.0670 ca         1 3F2      -0.118000
     35 CBL          9.3760     0.3600    -0.4100 ca         1 3F2      -0.103900
     36 CBF         10.3730    -0.5970     0.1030 ce         1 3F2       0.611300
     37 NAX         11.7000    -0.2450     0.1790 nu         1 3F2      -0.893400
     38 CAT         12.3640    -1.2840     0.9570 c5         1 3F2       0.152300
     39 CAV         11.3320    -2.4230     0.8640 c5         1 3F2       0.085800
     40 NAZ         10.0840    -1.7910     0.4540 n2         1 3F2      -0.612400
     41 H1         -11.9240    -0.2970     0.6660 hn         1 3F2       0.466000
     42 H3         -13.2860     1.9230     0.0740 h1         1 3F2       0.046950
     43 H4         -12.4270     1.8360     1.6170 h1         1 3F2       0.046950
     44 H5         -11.5630     3.2340    -0.9320 h1         1 3F2       0.064700
     45 H6         -11.1010     3.6220     0.7150 h1         1 3F2       0.064700
     46 H10         -7.7310     0.9730     0.0690 ha         1 3F2       0.168500
     47 H11        -10.8900    -1.8190    -0.6690 ha         1 3F2       0.120500
     48 H12         -9.2300    -3.6150    -0.9700 ha         1 3F2       0.116000
     49 H13         -6.8330    -3.1470    -0.7550 ha         1 3F2       0.110000
     50 H14         -5.1820    -1.6900    -0.4930 hn         1 3F2       0.153000
     51 H15         -3.2340     1.3180     1.8560 ha         1 3F2       0.127000
     52 H16         -0.7990     1.1830     1.7760 ha         1 3F2       0.121000
     53 H17         -3.4770    -1.1780    -1.6290 ha         1 3F2       0.127000
     54 H18         -1.0580    -1.2800    -1.7260 ha         1 3F2       0.121000
     55 H19          1.0550     1.8890     0.6200 ha         1 3F2       0.121000
     56 H20          3.4720     1.7770     0.5120 ha         1 3F2       0.127000
     57 H21          0.7950    -2.1830    -0.7070 ha         1 3F2       0.121000
     58 H22          3.2280    -2.2950    -0.8280 ha         1 3F2       0.127000
     59 H23          5.1150     1.5580    -0.7930 hn         1 3F2       0.153000
     60 H24          7.7530    -0.8310     0.2890 ha         1 3F2       0.168500
     61 H25          6.7120     2.8200    -1.7220 ha         1 3F2       0.110000
     62 H26          9.0950     3.3080    -2.0420 ha         1 3F2       0.116000
     63 H27         10.8140     1.7440    -1.2330 ha         1 3F2       0.120500
     64 H28         11.9280     0.7140     0.3930 hn         1 3F2       0.466000
     65 H29         13.3320    -1.5520     0.5330 h1         1 3F2       0.046950
     66 H30         11.6260    -3.1670     0.1160 h1         1 3F2       0.064700
     67 H2          12.5240    -0.9610     1.9890 h1         1 3F2       0.046950
     68 H7          11.2110    -2.9580     1.8070 h1         1 3F2       0.064700
@<TRIPOS>BOND
     1     1     2 1   
     2     1     5 1   
     3     1    41 1   
     4     2     3 1   
     5     2    42 1   
     6     2    43 1   
     7     3     4 1   
     8     3    44 1   
     9     3    45 1   
    10     4     5 2   
    11     5     6 1   
    12     6     7 ar  
    13     6     8 ar  
    14     7    11 ar  
    15     7    46 1   
    16     8     9 ar  
    17     8    47 1   
    18     9    10 ar  
    19     9    48 1   
    20    10    11 ar  
    21    10    49 1   
    22    11    12 1   
    23    12    13 1   
    24    12    50 1   
    25    13    14 2   
    26    13    15 1   
    27    15    16 ar  
    28    15    18 ar  
    29    16    17 ar  
    30    16    51 1   
    31    17    20 ar  
    32    17    52 1   
    33    18    19 ar  
    34    18    53 1   
    35    19    20 ar  
    36    19    54 1   
    37    20    21 1   
    38    21    22 ar  
    39    21    24 ar  
    40    22    23 ar  
    41    22    55 1   
    42    23    26 ar  
    43    23    56 1   
    44    24    25 ar  
    45    24    57 1   
    46    25    26 ar  
    47    25    58 1   
    48    26    27 1   
    49    27    28 2   
    50    27    29 1   
    51    29    30 1   
    52    29    59 1   
    53    30    31 ar  
    54    30    32 ar  
    55    31    35 ar  
    56    31    60 1   
    57    32    33 ar  
    58    32    61 1   
    59    33    34 ar  
    60    33    62 1   
    61    34    35 ar  
    62    34    63 1   
    63    35    36 1   
    64    36    37 1   
    65    36    40 2   
    66    37    38 1   
    67    37    64 1   
    68    38    39 1   
    69    38    65 1   
    70    38    67 1   
    71    39    40 1   
    72    39    66 1   
    73    39    68 1   
@<TRIPOS>SUBSTRUCTURE
     1 3F2         1 TEMP              0 ****  ****    0 ROOT
