@<TRIPOS>MOLECULE
3F2
   68    73     1     0     0
SMALL
No Charge or Current Charge


@<TRIPOS>ATOM
      1 NAY        -11.9350     0.4020    -0.0090 nu         1 3F2      -0.893400
      2 CAU        -12.4290     1.6070     0.6910 c5         1 3F2       0.152300
      3 CAS        -11.6030     2.6940    -0.0560 c5         1 3F2       0.085800
      4 NAW        -10.3570     1.9990    -0.4620 n2         1 3F2      -0.612400
      5 CBE        -10.6510     0.7470    -0.4120 ce         1 3F2       0.611300
      6 CBK         -9.6020    -0.3290    -0.4660 ca         1 3F2      -0.103900
      7 CAQ         -8.2290    -0.0070    -0.3320 ca         1 3F2      -0.087500
      8 CAG         -9.9600    -1.6750    -0.7100 ca         1 3F2      -0.118000
      9 CAC         -8.9760    -2.6720    -0.7910 ca         1 3F2      -0.090500
     10 CAE         -7.6220    -2.3400    -0.6370 ca         1 3F2      -0.155000
     11 CBG         -7.2340    -1.0090    -0.4050 ca         1 3F2      -0.027000
     12 NBA         -5.8410    -0.7510    -0.2730 ns         1 3F2      -0.144000
     13 CBC         -5.1250     0.3860     0.0890 c          1 3F2       0.618200
     14 OAA         -5.6600     1.4420     0.4080 o          1 3F2      -0.565100
     15 CBI         -3.6110     0.2470     0.0770 ca         1 3F2      -0.150600
     16 CAJ         -2.8080     1.3510     0.4400 ca         1 3F2      -0.071250
     17 CAN         -1.4060     1.2550     0.4390 ca         1 3F2      -0.106750
     18 CAI         -2.9640    -0.9590    -0.2890 ca         1 3F2      -0.071250
     19 CAM         -1.5620    -1.0490    -0.2870 ca         1 3F2      -0.106750
     20 CBM         -0.7510     0.0540     0.0760 cp         1 3F2      -0.017000
     21 CBN          0.7440    -0.0470     0.0760 cp         1 3F2      -0.017000
     22 CAP          1.5540     1.0550    -0.2880 ca         1 3F2      -0.106750
     23 CAL          2.9570     0.9650    -0.2910 ca         1 3F2      -0.071250
     24 CAO          1.3980    -1.2480     0.4400 ca         1 3F2      -0.106750
     25 CAK          2.8000    -1.3440     0.4410 ca         1 3F2      -0.071250
     26 CBJ          3.6030    -0.2400     0.0760 ca         1 3F2      -0.150600
     27 CBD          5.1170    -0.3800     0.0880 c          1 3F2       0.618200
     28 OAB          5.6520    -1.4360     0.4080 o          1 3F2      -0.565100
     29 NBB          5.8330     0.7560    -0.2750 ns         1 3F2      -0.144000
     30 CBH          7.2260     1.0140    -0.4090 ca         1 3F2      -0.027000
     31 CAR          8.2210     0.0120    -0.3380 ca         1 3F2      -0.087500
     32 CAF          7.6150     2.3450    -0.6400 ca         1 3F2      -0.155000
     33 CAD          8.9690     2.6760    -0.7950 ca         1 3F2      -0.090500
     34 CAH          9.9520     1.6790    -0.7160 ca         1 3F2      -0.118000
     35 CBL          9.5940     0.3330    -0.4730 ca         1 3F2      -0.103900
     36 CBF         10.6420    -0.7440    -0.4200 ce         1 3F2       0.611300
     37 NAX         11.9270    -0.4000    -0.0180 nu         1 3F2      -0.893400
     38 CAT         12.4200    -1.6060     0.6810 c5         1 3F2       0.152300
     39 CAV         11.5930    -2.6920    -0.0670 c5         1 3F2       0.085800
     40 NAZ         10.3470    -1.9950    -0.4720 n2         1 3F2      -0.612400
     41 H1         -11.9850    -0.5130     0.4340 hn         1 3F2       0.466000
     42 H3         -13.5110     1.7650     0.5810 h1         1 3F2       0.046950
     43 H4         -12.1850     1.5850     1.7630 h1         1 3F2       0.046950
     44 H5         -12.1390     3.0530    -0.9450 h1         1 3F2       0.064700
     45 H6         -11.3930     3.5590     0.5880 h1         1 3F2       0.064700
     46 H10         -7.9540     1.0300    -0.1720 ha         1 3F2       0.168500
     47 H11        -11.0010    -1.9550    -0.8530 ha         1 3F2       0.120500
     48 H12         -9.2640    -3.7050    -0.9790 ha         1 3F2       0.116000
     49 H13         -6.8710    -3.1240    -0.7030 ha         1 3F2       0.110000
     50 H14         -5.2620    -1.5510    -0.4850 hn         1 3F2       0.153000
     51 H15         -3.2670     2.2940     0.7300 ha         1 3F2       0.127000
     52 H16         -0.8220     2.1220     0.7380 ha         1 3F2       0.121000
     53 H17         -3.5300    -1.8410    -0.5820 ha         1 3F2       0.127000
     54 H18         -1.0980    -1.9850    -0.5860 ha         1 3F2       0.121000
     55 H19          1.0900     1.9910    -0.5890 ha         1 3F2       0.121000
     56 H20          3.5220     1.8460    -0.5850 ha         1 3F2       0.127000
     57 H21          0.8140    -2.1140     0.7400 ha         1 3F2       0.121000
     58 H22          3.2590    -2.2870     0.7320 ha         1 3F2       0.127000
     59 H23          5.2540     1.5570    -0.4880 hn         1 3F2       0.153000
     60 H24          7.9450    -1.0260    -0.1780 ha         1 3F2       0.168500
     61 H25          6.8640     3.1300    -0.7050 ha         1 3F2       0.110000
     62 H26          9.2570     3.7090    -0.9830 ha         1 3F2       0.116000
     63 H27         10.9940     1.9580    -0.8600 ha         1 3F2       0.120500
     64 H28         11.9780     0.5150     0.4260 hn         1 3F2       0.466000
     65 H29         13.5020    -1.7650     0.5700 h1         1 3F2       0.046950
     66 H30         12.1280    -3.0500    -0.9570 h1         1 3F2       0.064700
     67 H2          12.1780    -1.5850     1.7530 h1         1 3F2       0.046950
     68 H7          11.3830    -3.5580     0.5770 h1         1 3F2       0.064700
@<TRIPOS>BOND
     1     1     2 1   
     2     1     5 1   
     3     1    41 1   
     4     2     3 1   
     5     2    42 1   
     6     2    43 1   
     7     3     4 1   
     8     3    44 1   
     9     3    45 1   
    10     4     5 2   
    11     5     6 1   
    12     6     7 ar  
    13     6     8 ar  
    14     7    11 ar  
    15     7    46 1   
    16     8     9 ar  
    17     8    47 1   
    18     9    10 ar  
    19     9    48 1   
    20    10    11 ar  
    21    10    49 1   
    22    11    12 1   
    23    12    13 1   
    24    12    50 1   
    25    13    14 2   
    26    13    15 1   
    27    15    16 ar  
    28    15    18 ar  
    29    16    17 ar  
    30    16    51 1   
    31    17    20 ar  
    32    17    52 1   
    33    18    19 ar  
    34    18    53 1   
    35    19    20 ar  
    36    19    54 1   
    37    20    21 1   
    38    21    22 ar  
    39    21    24 ar  
    40    22    23 ar  
    41    22    55 1   
    42    23    26 ar  
    43    23    56 1   
    44    24    25 ar  
    45    24    57 1   
    46    25    26 ar  
    47    25    58 1   
    48    26    27 1   
    49    27    28 2   
    50    27    29 1   
    51    29    30 1   
    52    29    59 1   
    53    30    31 ar  
    54    30    32 ar  
    55    31    35 ar  
    56    31    60 1   
    57    32    33 ar  
    58    32    61 1   
    59    33    34 ar  
    60    33    62 1   
    61    34    35 ar  
    62    34    63 1   
    63    35    36 1   
    64    36    37 1   
    65    36    40 2   
    66    37    38 1   
    67    37    64 1   
    68    38    39 1   
    69    38    65 1   
    70    38    67 1   
    71    39    40 1   
    72    39    66 1   
    73    39    68 1   
@<TRIPOS>SUBSTRUCTURE
     1 3F2         1 TEMP              0 ****  ****    0 ROOT
