@<TRIPOS>MOLECULE
3F3
   53    57     1     0     0
SMALL
abcg2


@<TRIPOS>ATOM
      1 C            7.1250     1.0450    -2.8070 c3         1 3F3       0.148900
      2 O            6.3430     0.1800    -2.0060 os         1 3F3      -0.339100
      3 C1           5.7870     0.6700    -0.8830 ca         1 3F3       0.143100
      4 C22          5.9200     1.9890    -0.4510 ca         1 3F3      -0.191000
      5 C21          5.3010     2.3840     0.7290 ca         1 3F3      -0.073000
      6 C20          4.5560     1.4910     1.4820 ca         1 3F3      -0.133000
      7 C3           4.4260     0.1740     1.0510 ca         1 3F3      -0.059300
      8 C2           5.0370    -0.2300    -0.1260 ca         1 3F3      -0.132000
      9 C4           3.6040    -0.8180     1.8400 c3         1 3F3      -0.053400
     10 C5           2.2990    -1.0730     1.1880 cc         1 3F3       0.422300
     11 O1           1.4290    -0.0600     1.0350 os         1 3F3      -0.284000
     12 C6           0.3910    -0.6290     0.3970 cc         1 3F3       0.509800
     13 N1           0.5990    -1.8820     0.1750 nd         1 3F3      -0.332000
     14 N            1.8380    -2.1630     0.6900 nd         1 3F3      -0.362000
     15 C7          -0.7280     0.2110     0.0720 cc         1 3F3      -0.168200
     16 S           -0.6710     1.9050     0.4730 ss         1 3F3       0.121400
     17 C19         -2.2390     2.1500    -0.2190 ca         1 3F3      -0.152000
     18 C18         -2.9250     3.3600    -0.2950 ca         1 3F3      -0.088000
     19 C17         -4.1540     3.3700    -0.9230 ca         1 3F3      -0.088000
     20 C16         -4.6930     2.2010    -1.4770 ca         1 3F3      -0.120000
     21 C15         -4.0140     1.0050    -1.3980 ca         1 3F3      -0.055000
     22 C14         -2.7740     0.9670    -0.7480 ca         1 3F3      -0.112800
     23 C8          -1.8840    -0.1460    -0.5600 cd         1 3F3       0.188900
     24 O2          -2.1370    -1.3850    -0.9980 os         1 3F3      -0.331100
     25 C9          -3.1670    -2.1220    -0.3080 c6         1 3F3       0.183300
     26 C13         -3.4490    -3.3650    -1.1280 c6         1 3F3      -0.093400
     27 C12         -4.4830    -4.2260    -0.4140 c6         1 3F3       0.161800
     28 N2          -4.0080    -4.5650     0.9140 n7         1 3F3      -0.859400
     29 C11         -3.8210    -3.3820     1.7330 c6         1 3F3       0.161800
     30 C10         -2.7560    -2.4850     1.1100 c6         1 3F3      -0.093400
     31 HC1          7.9900     1.4320    -2.2640 h1         1 3F3       0.041033
     32 HC2          7.4750     0.4540    -3.6490 h1         1 3F3       0.041033
     33 HC3          6.5410     1.8870    -3.1870 h1         1 3F3       0.041033
     34 H22          6.4980     2.7120    -1.0100 ha         1 3F3       0.118000
     35 H2           4.9380    -1.2540    -0.4690 ha         1 3F3       0.136000
     36 H21          5.4090     3.4090     1.0590 ha         1 3F3       0.112000
     37 H20          4.0820     1.8130     2.4000 ha         1 3F3       0.116000
     38 H41C         4.1200    -1.7750     1.9210 hc         1 3F3       0.081200
     39 H42C         3.4380    -0.4530     2.8550 hc         1 3F3       0.081200
     40 H18         -2.5030     4.2670     0.1160 ha         1 3F3       0.124000
     41 H17         -4.7050     4.2990    -0.9980 ha         1 3F3       0.116000
     42 H16         -5.6510     2.2420    -1.9790 ha         1 3F3       0.117000
     43 H15         -4.4290     0.1110    -1.8440 ha         1 3F3       0.124000
     44 H9          -4.0770    -1.5090    -0.2660 h1         1 3F3       0.032700
     45 H131        -3.8150    -3.0920    -2.1210 hc         1 3F3       0.066450
     46 H132        -2.5240    -3.9350    -1.2550 hc         1 3F3       0.066450
     47 H101        -1.7980    -3.0100     1.0850 hc         1 3F3       0.066450
     48 H102        -2.6340    -1.5890     1.7220 hc         1 3F3       0.066450
     49 H121        -5.4440    -3.6840    -0.3930 h1         1 3F3       0.029950
     50 H122        -4.6510    -5.1430    -0.9800 h1         1 3F3       0.029950
     51 HA          -4.6690    -5.1860     1.3620 hn         1 3F3       0.412000
     52 H111        -4.7510    -2.8020     1.8570 h1         1 3F3       0.029950
     53 H112        -3.5030    -3.6840     2.7320 h1         1 3F3       0.029950
@<TRIPOS>BOND
     1     1     2 1   
     2     1    31 1   
     3     1    32 1   
     4     1    33 1   
     5     2     3 1   
     6     3     4 ar  
     7     3     8 ar  
     8     4     5 ar  
     9     4    34 1   
    10     5     6 ar  
    11     5    36 1   
    12     6     7 ar  
    13     6    37 1   
    14     7     8 ar  
    15     7     9 1   
    16     8    35 1   
    17     9    10 1   
    18     9    38 1   
    19     9    39 1   
    20    10    11 1   
    21    10    14 2   
    22    11    12 1   
    23    12    13 2   
    24    12    15 1   
    25    13    14 1   
    26    15    16 1   
    27    15    23 2   
    28    16    17 1   
    29    17    18 ar  
    30    17    22 ar  
    31    18    19 ar  
    32    18    40 1   
    33    19    20 ar  
    34    19    41 1   
    35    20    21 ar  
    36    20    42 1   
    37    21    22 ar  
    38    21    43 1   
    39    22    23 1   
    40    23    24 1   
    41    24    25 1   
    42    25    26 1   
    43    25    30 1   
    44    25    44 1   
    45    26    27 1   
    46    26    45 1   
    47    26    46 1   
    48    27    28 1   
    49    27    49 1   
    50    27    50 1   
    51    28    29 1   
    52    28    51 1   
    53    29    30 1   
    54    29    52 1   
    55    29    53 1   
    56    30    47 1   
    57    30    48 1   
@<TRIPOS>SUBSTRUCTURE
     1 3F3         1 TEMP              0 ****  ****    0 ROOT
