@<TRIPOS>MOLECULE
3F3
   53    57     1     0     0
SMALL
No Charge or Current Charge


@<TRIPOS>ATOM
      1 C            7.8840     0.6830    -2.6530 c3         1 3F3       0.148900
      2 O            6.9950    -0.0780    -1.8150 os         1 3F3      -0.339100
      3 C1           6.1910     0.5180    -0.8640 ca         1 3F3       0.143100
      4 C22          6.1810     1.9120    -0.6430 ca         1 3F3      -0.191000
      5 C21          5.3380     2.4600     0.3390 ca         1 3F3      -0.073000
      6 C20          4.5060     1.6230     1.1020 ca         1 3F3      -0.133000
      7 C3           4.5120     0.2320     0.8900 ca         1 3F3      -0.059300
      8 C2           5.3560    -0.3120    -0.0970 ca         1 3F3      -0.132000
      9 C4           3.6030    -0.6750     1.7100 c3         1 3F3      -0.053400
     10 C5           2.2560    -0.8710     1.0750 cc         1 3F3       0.422300
     11 O1           1.3710     0.1540     1.0630 os         1 3F3      -0.284000
     12 C6           0.3130    -0.3900     0.4090 cc         1 3F3       0.509800
     13 N1           0.5350    -1.6480     0.0540 nd         1 3F3      -0.332000
     14 N            1.7990    -1.9620     0.4860 nd         1 3F3      -0.362000
     15 C7          -0.8430     0.4320     0.2010 cc         1 3F3      -0.168200
     16 S           -0.9650     2.1230     0.7520 ss         1 3F3       0.121400
     17 C19         -2.6060     2.2240     0.0300 ca         1 3F3      -0.152000
     18 C18         -3.4150     3.3700     0.0270 ca         1 3F3      -0.088000
     19 C17         -4.6730     3.3140    -0.6070 ca         1 3F3      -0.088000
     20 C16         -5.0980     2.1250    -1.2380 ca         1 3F3      -0.120000
     21 C15         -4.2740     0.9810    -1.2300 ca         1 3F3      -0.055000
     22 C14         -3.0340     1.0520    -0.5690 ca         1 3F3      -0.112800
     23 C8          -2.0070     0.0420    -0.4250 cd         1 3F3       0.188900
     24 O2          -2.1970    -1.2220    -0.9120 os         1 3F3      -0.331100
     25 C9          -3.2160    -2.0720    -0.3440 c6         1 3F3       0.183300
     26 C13         -3.3560    -3.3540    -1.1950 c6         1 3F3      -0.093400
     27 C12         -4.3870    -4.3190    -0.5680 c6         1 3F3       0.161800
     28 N2          -4.0340    -4.6340     0.8360 n7         1 3F3      -0.859400
     29 C11         -3.9240    -3.4280     1.6900 c6         1 3F3       0.161800
     30 C10         -2.8810    -2.4400     1.1230 c6         1 3F3      -0.093400
     31 HC1          8.6230     1.2240    -2.0480 h1         1 3F3       0.041033
     32 HC2          8.4270     0.0160    -3.3340 h1         1 3F3       0.041033
     33 HC3          7.3250     1.4070    -3.2590 h1         1 3F3       0.041033
     34 H22          6.8140     2.5820    -1.2180 ha         1 3F3       0.118000
     35 H2           5.3670    -1.3840    -0.2750 ha         1 3F3       0.136000
     36 H21          5.3280     3.5350     0.5090 ha         1 3F3       0.112000
     37 H20          3.8550     2.0590     1.8570 ha         1 3F3       0.116000
     38 H41C         4.0780    -1.6510     1.8580 hc         1 3F3       0.081200
     39 H42C         3.4630    -0.2590     2.7140 hc         1 3F3       0.081200
     40 H18         -3.0770     4.2890     0.5010 ha         1 3F3       0.124000
     41 H17         -5.3120     4.1930    -0.6200 ha         1 3F3       0.116000
     42 H16         -6.0620     2.0930    -1.7400 ha         1 3F3       0.117000
     43 H15         -4.5930     0.0770    -1.7420 ha         1 3F3       0.124000
     44 H9          -4.1780    -1.5440    -0.3560 h1         1 3F3       0.032700
     45 H131        -3.6650    -3.0940    -2.2160 hc         1 3F3       0.066450
     46 H132        -2.3820    -3.8560    -1.2750 hc         1 3F3       0.066450
     47 H101        -1.8820    -2.8920     1.1770 hc         1 3F3       0.066450
     48 H102        -2.8580    -1.5360     1.7460 hc         1 3F3       0.066450
     49 H121        -5.3870    -3.8600    -0.6000 h1         1 3F3       0.029950
     50 H122        -4.4270    -5.2480    -1.1540 h1         1 3F3       0.029950
     51 HA          -4.7550    -5.2540     1.2290 hn         1 3F3       0.412000
     52 H111        -4.9050    -2.9320     1.7510 h1         1 3F3       0.029950
     53 H112        -3.6370    -3.7250     2.7090 h1         1 3F3       0.029950
@<TRIPOS>BOND
     1     1     2 1   
     2     1    31 1   
     3     1    32 1   
     4     1    33 1   
     5     2     3 1   
     6     3     4 ar  
     7     3     8 ar  
     8     4     5 ar  
     9     4    34 1   
    10     5     6 ar  
    11     5    36 1   
    12     6     7 ar  
    13     6    37 1   
    14     7     8 ar  
    15     7     9 1   
    16     8    35 1   
    17     9    10 1   
    18     9    38 1   
    19     9    39 1   
    20    10    11 1   
    21    10    14 2   
    22    11    12 1   
    23    12    13 2   
    24    12    15 1   
    25    13    14 1   
    26    15    16 1   
    27    15    23 2   
    28    16    17 1   
    29    17    18 ar  
    30    17    22 ar  
    31    18    19 ar  
    32    18    40 1   
    33    19    20 ar  
    34    19    41 1   
    35    20    21 ar  
    36    20    42 1   
    37    21    22 ar  
    38    21    43 1   
    39    22    23 1   
    40    23    24 1   
    41    24    25 1   
    42    25    26 1   
    43    25    30 1   
    44    25    44 1   
    45    26    27 1   
    46    26    45 1   
    47    26    46 1   
    48    27    28 1   
    49    27    49 1   
    50    27    50 1   
    51    28    29 1   
    52    28    51 1   
    53    29    30 1   
    54    29    52 1   
    55    29    53 1   
    56    30    47 1   
    57    30    48 1   
@<TRIPOS>SUBSTRUCTURE
     1 3F3         1 TEMP              0 ****  ****    0 ROOT
