@<TRIPOS>MOLECULE
3F4
   28    30     1     0     0
SMALL
abcg2


@<TRIPOS>ATOM
      1 O1          -2.1700    -2.7900    -0.0050 o          1 3F4      -0.540000
      2 C13         -1.7610    -1.6430     0.0020 c          1 3F4       0.579600
      3 N1          -0.4100    -1.3710     0.0130 ns         1 3F4      -0.429400
      4 C6           0.1340    -0.1170     0.0220 cc         1 3F4       0.576500
      5 C3           1.6000     0.0090     0.0350 ca         1 3F4      -0.194900
      6 C4           2.1650     1.2890     0.0330 ca         1 3F4      -0.029000
      7 C5           3.5300     1.4730     0.0450 ca         1 3F4      -0.188500
      8 C            4.3830     0.3680     0.0620 ca         1 3F4       0.168100
      9 O            5.7020     0.5980     0.0750 oh         1 3F4      -0.524100
     10 C1           3.8380    -0.9140     0.0650 ca         1 3F4      -0.188500
     11 C2           2.4650    -1.0850     0.0510 ca         1 3F4      -0.029000
     12 N           -0.5950     0.9460     0.0200 nd         1 3F4      -0.644100
     13 C7          -1.9570     0.8070     0.0090 ca         1 3F4       0.196400
     14 C8          -2.5900    -0.4470     0.0010 ca         1 3F4      -0.207600
     15 C12         -2.7520     1.9630     0.0070 ca         1 3F4      -0.108000
     16 C11         -4.1250     1.8590    -0.0020 ca         1 3F4      -0.074000
     17 C10         -4.7500     0.6060    -0.0100 ca         1 3F4      -0.136000
     18 C9          -3.9850    -0.5390    -0.0090 ca         1 3F4      -0.038000
     19 H1           0.1940    -2.1810     0.0100 hn         1 3F4       0.328500
     20 H4           1.5150     2.1530     0.0200 ha         1 3F4       0.127500
     21 H2           2.1040    -2.1050     0.0550 ha         1 3F4       0.127500
     22 H5           3.9450     2.4730     0.0430 ha         1 3F4       0.127500
     23 H            6.1970    -0.2300     0.0950 ho         1 3F4       0.471000
     24 HA           4.4840    -1.7840     0.0770 ha         1 3F4       0.127500
     25 H12         -2.2660     2.9300     0.0130 ha         1 3F4       0.131000
     26 H9          -4.4550    -1.5140    -0.0150 ha         1 3F4       0.135000
     27 H11         -4.7300     2.7570    -0.0040 ha         1 3F4       0.116000
     28 H10         -5.8290     0.5400    -0.0160 ha         1 3F4       0.119000
@<TRIPOS>BOND
     1     1     2 2   
     2     2     3 1   
     3     2    14 1   
     4     3     4 1   
     5     3    19 1   
     6     4     5 1   
     7     4    12 2   
     8     5     6 ar  
     9     5    11 ar  
    10     6     7 ar  
    11     6    20 1   
    12     7     8 ar  
    13     7    22 1   
    14     8     9 1   
    15     8    10 ar  
    16     9    23 1   
    17    10    11 ar  
    18    10    24 1   
    19    11    21 1   
    20    12    13 1   
    21    13    14 ar  
    22    13    15 ar  
    23    14    18 ar  
    24    15    16 ar  
    25    15    25 1   
    26    16    17 ar  
    27    16    27 1   
    28    17    18 ar  
    29    17    28 1   
    30    18    26 1   
@<TRIPOS>SUBSTRUCTURE
     1 3F4         1 TEMP              0 ****  ****    0 ROOT
