@<TRIPOS>MOLECULE
3F4
   28    30     1     0     0
SMALL
No Charge or Current Charge


@<TRIPOS>ATOM
      1 O1          -2.0750    -2.7230    -0.5400 o          1 3F4      -0.540000
      2 C13         -1.6840    -1.5860    -0.3250 c          1 3F4       0.579600
      3 N1          -0.3710    -1.2820    -0.2700 ns         1 3F4      -0.429400
      4 C6           0.1390    -0.0340    -0.0320 cc         1 3F4       0.576500
      5 C3           1.6080     0.0690    -0.0250 ca         1 3F4      -0.194900
      6 C4           2.2390     1.2860    -0.3750 ca         1 3F4      -0.029000
      7 C5           3.6390     1.4040    -0.3360 ca         1 3F4      -0.188500
      8 C            4.4270     0.3210     0.0700 ca         1 3F4       0.168100
      9 O            5.7820     0.4500     0.1060 oh         1 3F4      -0.524100
     10 C1           3.8180    -0.8830     0.4480 ca         1 3F4      -0.188500
     11 C2           2.4170    -1.0090     0.4100 ca         1 3F4      -0.029000
     12 N           -0.6090     1.0570     0.1510 nd         1 3F4      -0.644100
     13 C7          -1.9950     0.8350     0.1140 ca         1 3F4       0.196400
     14 C8          -2.5790    -0.4260    -0.1090 ca         1 3F4      -0.207600
     15 C12         -2.8370     1.9450     0.3130 ca         1 3F4      -0.108000
     16 C11         -4.2360     1.8060     0.2920 ca         1 3F4      -0.074000
     17 C10         -4.8080     0.5440     0.0700 ca         1 3F4      -0.136000
     18 C9          -3.9830    -0.5730    -0.1310 ca         1 3F4      -0.038000
     19 H1           0.2660    -2.0430    -0.4410 hn         1 3F4       0.328500
     20 H4           1.6470     2.1430    -0.6920 ha         1 3F4       0.127500
     21 H2           1.9730    -1.9480     0.7360 ha         1 3F4       0.127500
     22 H5           4.1110     2.3410    -0.6190 ha         1 3F4       0.127500
     23 H            6.1660    -0.3990     0.4140 ho         1 3F4       0.471000
     24 HA           4.4200    -1.7250     0.7800 ha         1 3F4       0.127500
     25 H12         -2.4000     2.9250     0.4860 ha         1 3F4       0.131000
     26 H9          -4.4340    -1.5490    -0.3050 ha         1 3F4       0.135000
     27 H11         -4.8720     2.6740     0.4480 ha         1 3F4       0.116000
     28 H10         -5.8900     0.4320     0.0530 ha         1 3F4       0.119000
@<TRIPOS>BOND
     1     1     2 2   
     2     2     3 1   
     3     2    14 1   
     4     3     4 1   
     5     3    19 1   
     6     4     5 1   
     7     4    12 2   
     8     5     6 ar  
     9     5    11 ar  
    10     6     7 ar  
    11     6    20 1   
    12     7     8 ar  
    13     7    22 1   
    14     8     9 1   
    15     8    10 ar  
    16     9    23 1   
    17    10    11 ar  
    18    10    24 1   
    19    11    21 1   
    20    12    13 1   
    21    13    14 ar  
    22    13    15 ar  
    23    14    18 ar  
    24    15    16 ar  
    25    15    25 1   
    26    16    17 ar  
    27    16    27 1   
    28    17    18 ar  
    29    17    28 1   
    30    18    26 1   
@<TRIPOS>SUBSTRUCTURE
     1 3F4         1 TEMP              0 ****  ****    0 ROOT
