@<TRIPOS>MOLECULE
3F5
   44    46     1     0     0
SMALL
bcc


@<TRIPOS>ATOM
      1 N1          -4.9850     0.9430     1.5140 nb         1 3F5      -0.815000
      2 C2          -4.1630     0.1710     2.2140 ca         1 3F5       0.697900
      3 N3          -2.9530    -0.2490     1.8760 nb         1 3F5      -0.735000
      4 C4          -4.5980     1.3830     0.3090 ca         1 3F5       0.757200
      5 N5          -1.4140    -0.0410     0.0110 na         1 3F5      -0.280000
      6 C6          -1.5170     0.6420    -1.1870 cc         1 3F5       0.622700
      7 N7          -2.6480     1.2790    -1.3190 nd         1 3F5      -0.617100
      8 C8          -3.3350     1.0030    -0.1610 ca         1 3F5      -0.200200
      9 C9          -2.5900     0.1980     0.6810 ca         1 3F5       0.468800
     10 N10         -5.4180     2.1880    -0.3850 nv         1 3F5      -0.948500
     11 C11         -0.4090    -0.9760     0.4350 c5         1 3F5       0.251800
     12 O12          0.8550    -0.3600     0.3460 os         1 3F5      -0.394600
     13 C13          1.8170    -1.3400    -0.0090 c5         1 3F5       0.142100
     14 C14          1.0750    -2.2440    -0.9890 c5         1 3F5       0.065100
     15 C15         -0.3410    -2.2880    -0.3810 c5         1 3F5       0.078100
     16 C16          3.0370    -0.6830    -0.6000 c3         1 3F5       0.142400
     17 O17          3.6780     0.0760     0.3890 os         1 3F5      -0.356600
     18 O18         -0.4760    -3.3660     0.5030 oh         1 3F5      -0.579800
     19 O19          1.6850    -3.5010    -1.0610 oh         1 3F5      -0.586800
     20 N20         -0.5300     0.5930    -2.1170 nu         1 3F5      -0.813200
     21 C21         -0.6980     1.3680    -3.3290 c3         1 3F5       0.201100
     22 C22          4.8490     0.6780    -0.0700 c3         1 3F5       0.049400
     23 C23          5.4010     1.5740     1.0270 c          1 3F5       0.672100
     24 O24          4.7310     1.9150     1.9860 o          1 3F5      -0.560100
     25 N25          6.6650     1.9670     0.8190 nt         1 3F5      -0.686000
     26 H2          -4.5300    -0.1550     3.1810 h5         1 3F5       0.048100
     27 HN10        -6.3710     2.2970    -0.0800 hn         1 3F5       0.441800
     28 HN1A        -5.2190     2.3940    -1.3480 hn         1 3F5       0.441800
     29 H11         -0.6540    -1.2260     1.4720 h2         1 3F5       0.124700
     30 H13          2.1130    -1.9240     0.8750 h1         1 3F5       0.089700
     31 H14          1.0280    -1.7630    -1.9720 h1         1 3F5       0.057700
     32 H15         -1.1140    -2.3120    -1.1570 h1         1 3F5       0.074700
     33 H16          3.6930    -1.4750    -0.9890 h1         1 3F5       0.028700
     34 H16A         2.7530    -0.0550    -1.4590 h1         1 3F5       0.028700
     35 HO18         0.1220    -4.0620     0.2000 ho         1 3F5       0.424000
     36 HO19         1.5100    -3.8870    -1.9250 ho         1 3F5       0.419000
     37 HN20         0.4020     0.6080    -1.7350 hn         1 3F5       0.423800
     38 H21          0.1680     1.2000    -3.9640 h1         1 3F5       0.042033
     39 H21A        -1.5840     1.0360    -3.8660 h1         1 3F5       0.042033
     40 H21B        -0.7930     2.4400    -3.1430 h1         1 3F5       0.042033
     41 H22          5.6010    -0.0660    -0.3660 h1         1 3F5       0.033200
     42 H22A         4.6650     1.3040    -0.9560 h1         1 3F5       0.033200
     43 HN25         7.2030     1.6450     0.0330 hn         1 3F5       0.314500
     44 HN2A         7.1070     2.6190     1.4460 hn         1 3F5       0.314500
@<TRIPOS>BOND
     1     1     2 ar  
     2     1     4 ar  
     3     2     3 ar  
     4     2    26 1   
     5     3     9 ar  
     6     4     8 ar  
     7     4    10 1   
     8     5     6 1   
     9     5     9 1   
    10     5    11 1   
    11     6     7 2   
    12     6    20 1   
    13     7     8 1   
    14     8     9 ar  
    15    10    27 1   
    16    10    28 1   
    17    11    12 1   
    18    11    15 1   
    19    11    29 1   
    20    12    13 1   
    21    13    14 1   
    22    13    16 1   
    23    13    30 1   
    24    14    15 1   
    25    14    19 1   
    26    14    31 1   
    27    15    18 1   
    28    15    32 1   
    29    16    17 1   
    30    16    33 1   
    31    16    34 1   
    32    17    22 1   
    33    18    35 1   
    34    19    36 1   
    35    20    21 1   
    36    20    37 1   
    37    21    38 1   
    38    21    39 1   
    39    21    40 1   
    40    22    23 1   
    41    22    41 1   
    42    22    42 1   
    43    23    24 2   
    44    23    25 1   
    45    25    43 1   
    46    25    44 1   
@<TRIPOS>SUBSTRUCTURE
     1 3F5         1 TEMP              0 ****  ****    0 ROOT
