@<TRIPOS>MOLECULE
3F5
   44    46     1     0     0
SMALL
No Charge or Current Charge


@<TRIPOS>ATOM
      1 N1          -5.0230     1.2150     1.7110 nb         1 3F5      -0.289000
      2 C2          -4.0960     0.5520     2.4460 ca         1 3F5       0.171900
      3 N3          -2.8940     0.0980     2.0160 nb         1 3F5      -0.209000
      4 C4          -4.7070     1.4420     0.4260 ca         1 3F5       0.428900
      5 N5          -1.5220     0.0270    -0.0490 na         1 3F5      -0.309300
      6 C6          -1.7860     0.5300    -1.3170 cc         1 3F5       0.622700
      7 N7          -2.9720     1.1330    -1.4110 nd         1 3F5      -0.617100
      8 C8          -3.4770     1.0030    -0.1110 ca         1 3F5      -0.069600
      9 C9          -2.6070     0.3400     0.7220 ca         1 3F5       0.140500
     10 N10         -5.6380     2.1050    -0.3140 nv         1 3F5      -1.058900
     11 C11         -0.4390    -0.8830     0.3190 c5         1 3F5       0.304300
     12 O12          0.8320    -0.2200     0.1380 os         1 3F5      -0.441000
     13 C13          1.8110    -1.2510    -0.1080 c5         1 3F5       0.165300
     14 C14          1.0640    -2.1570    -1.1340 c5         1 3F5       0.088300
     15 C15         -0.3420    -2.2500    -0.4620 c5         1 3F5       0.101300
     16 C16          3.1380    -0.6360    -0.6190 c3         1 3F5       0.165600
     17 O17          3.8090    -0.0050     0.4880 os         1 3F5      -0.403000
     18 O18         -0.3320    -3.3900     0.4060 oh         1 3F5      -0.702000
     19 O19          1.6420    -3.4700    -1.2900 oh         1 3F5      -0.709000
     20 N20         -0.8970     0.4770    -2.3440 nu         1 3F5      -0.868400
     21 C21         -1.0870     1.0870    -3.6680 c3         1 3F5       0.201100
     22 C22          5.0650     0.6280     0.1500 c3         1 3F5       0.072600
     23 C23          5.7550     1.2900     1.3730 c          1 3F5       0.605100
     24 O24          5.3060     1.2820     2.5090 o          1 3F5      -0.560100
     25 N25          6.9340     1.9090     1.1210 nt         1 3F5      -0.619000
     26 H2          -4.3430     0.3640     3.4890 h5         1 3F5       0.048100
     27 HN10        -6.5930     2.1370     0.0330 hn         1 3F5       0.497000
     28 HN1A        -5.5140     2.1040    -1.3240 hn         1 3F5       0.497000
     29 H11         -0.5790    -1.1010     1.3850 h2         1 3F5       0.124700
     30 H13          2.0080    -1.7950     0.8270 h1         1 3F5       0.089700
     31 H14          0.9870    -1.6520    -2.1080 h1         1 3F5       0.057700
     32 H15         -1.1360    -2.3430    -1.2170 h1         1 3F5       0.074700
     33 H16          3.7660    -1.4340    -1.0360 h1         1 3F5       0.028700
     34 H16A         2.9240     0.0880    -1.4160 h1         1 3F5       0.028700
     35 HO18         0.4180    -3.9230     0.0280 ho         1 3F5       0.523000
     36 HO19         2.2790    -3.4330    -2.0450 ho         1 3F5       0.518000
     37 HN20         0.0570     0.3610    -2.0120 hn         1 3F5       0.479000
     38 H21         -0.2160     0.8910    -4.3080 h1         1 3F5       0.042033
     39 H21A        -1.9770     0.6720    -4.1580 h1         1 3F5       0.042033
     40 H21B        -1.2130     2.1740    -3.5770 h1         1 3F5       0.042033
     41 H22          5.7650    -0.1070    -0.2680 h1         1 3F5       0.033200
     42 H22A         4.9100     1.4090    -0.6060 h1         1 3F5       0.033200
     43 HN25         7.3120     1.9200     0.1850 hn         1 3F5       0.314500
     44 HN2A         7.4270     2.3570     1.8790 hn         1 3F5       0.314500
@<TRIPOS>BOND
     1     1     2 ar  
     2     1     4 ar  
     3     2     3 ar  
     4     2    26 1   
     5     3     9 ar  
     6     4     8 ar  
     7     4    10 1   
     8     5     6 1   
     9     5     9 1   
    10     5    11 1   
    11     6     7 2   
    12     6    20 1   
    13     7     8 1   
    14     8     9 ar  
    15    10    27 1   
    16    10    28 1   
    17    11    12 1   
    18    11    15 1   
    19    11    29 1   
    20    12    13 1   
    21    13    14 1   
    22    13    16 1   
    23    13    30 1   
    24    14    15 1   
    25    14    19 1   
    26    14    31 1   
    27    15    18 1   
    28    15    32 1   
    29    16    17 1   
    30    16    33 1   
    31    16    34 1   
    32    17    22 1   
    33    18    35 1   
    34    19    36 1   
    35    20    21 1   
    36    20    37 1   
    37    21    38 1   
    38    21    39 1   
    39    21    40 1   
    40    22    23 1   
    41    22    41 1   
    42    22    42 1   
    43    23    24 2   
    44    23    25 1   
    45    25    43 1   
    46    25    44 1   
@<TRIPOS>SUBSTRUCTURE
     1 3F5         1 TEMP              0 ****  ****    0 ROOT
