@<TRIPOS>MOLECULE
3F6
   64    70     1     0     0
SMALL
No Charge or Current Charge


@<TRIPOS>ATOM
      1 NAU          9.9080    -0.0900    -0.0890 nu         1 3F6      -0.944400
      2 CAQ         11.1310    -0.8210    -0.4590 c6         1 3F6       0.220800
      3 CAM         10.7910    -2.3010    -0.7010 c6         1 3F6      -0.130400
      4 CAO          9.9180    -2.8260     0.4550 c6         1 3F6       0.120800
      5 NAS          8.7250    -1.9850     0.6680 n2         1 3F6      -0.676900
      6 CAY          8.7490    -0.7240     0.3690 ce         1 3F6       0.679800
      7 CBA          7.4770     0.0780     0.3250 ca         1 3F6      -0.123900
      8 CAI          6.2200    -0.5780     0.2290 ca         1 3F6      -0.076000
      9 CAE          7.4990     1.5000     0.4480 ca         1 3F6      -0.129000
     10 CAG          6.3030     2.2480     0.4380 ca         1 3F6      -0.067000
     11 CBG          5.0970     1.5520     0.3180 ca         1 3F6      -0.090800
     12 CAK          3.7480     2.0250     0.2860 cc         1 3F6      -0.220700
     13 CBI          5.0500     0.1950     0.2210 ca         1 3F6      -0.052200
     14 NAW          3.7390    -0.2450     0.1270 na         1 3F6      -0.213700
     15 CBE          2.9200     0.9120     0.1680 cd         1 3F6      -0.006300
     16 CBC          1.4420     0.9030     0.0950 ca         1 3F6      -0.028300
     17 CAB          0.7020     2.1030     0.1450 ca         1 3F6      -0.097000
     18 CAD         -0.7020     2.0880     0.0750 ca         1 3F6      -0.097000
     19 CAA          0.7360    -0.3130    -0.0240 ca         1 3F6      -0.097000
     20 CAC         -0.6680    -0.3270    -0.0930 ca         1 3F6      -0.097000
     21 CBD         -1.4070     0.8720    -0.0480 ca         1 3F6      -0.028300
     22 CBF         -2.8740     0.8320    -0.1200 cc         1 3F6      -0.006300
     23 CAL         -3.7040     1.9290    -0.3050 cd         1 3F6      -0.220700
     24 NAX         -3.7300    -0.2850    -0.0650 na         1 3F6      -0.213700
     25 CBJ         -5.0470     0.1350    -0.2020 ca         1 3F6      -0.052200
     26 CAJ         -6.2210    -0.6290    -0.2050 ca         1 3F6      -0.076000
     27 CBH         -5.0770     1.4930    -0.3520 ca         1 3F6      -0.090800
     28 CAH         -6.2710     2.1970    -0.5240 ca         1 3F6      -0.067000
     29 CAF         -7.4730     1.4560    -0.5300 ca         1 3F6      -0.129000
     30 CBB         -7.4680     0.0390    -0.3520 ca         1 3F6      -0.123900
     31 CAZ         -8.7480    -0.7510    -0.3930 ce         1 3F6       0.679800
     32 NAT         -8.7320    -2.0220    -0.6460 n2         1 3F6      -0.676900
     33 CAP         -9.9390    -2.8420    -0.4260 c6         1 3F6       0.120800
     34 CAN        -10.8280    -2.2670     0.6920 c6         1 3F6      -0.130400
     35 CAR        -11.1470    -0.7930     0.3890 c6         1 3F6       0.220800
     36 NAV         -9.9090    -0.0890     0.0180 nu         1 3F6      -0.944400
     37 H1           9.7480     0.8290    -0.4940 hn         1 3F6       0.484000
     38 H2          11.5890    -0.3920    -1.3620 h1         1 3F6       0.041450
     39 H3          11.8690    -0.7470     0.3540 h1         1 3F6       0.041450
     40 H4          10.2490    -2.4070    -1.6510 hc         1 3F6       0.051450
     41 H5          11.7100    -2.8940    -0.7900 hc         1 3F6       0.051450
     42 H6           9.6000    -3.8570     0.2420 h1         1 3F6       0.052700
     43 H7          10.5080    -2.8440     1.3840 h1         1 3F6       0.052700
     44 H8           6.1560    -1.6610     0.1530 ha         1 3F6       0.137000
     45 H9           8.4400     2.0310     0.5660 ha         1 3F6       0.113000
     46 H10          6.3180     3.3320     0.5300 ha         1 3F6       0.116000
     47 H11          3.4290     3.0620     0.3440 ha         1 3F6       0.205500
     48 H12          3.4270    -1.2060     0.0450 hn         1 3F6       0.351500
     49 H13          1.2050     3.0600     0.2400 ha         1 3F6       0.116250
     50 H14         -1.2320     3.0340     0.1260 ha         1 3F6       0.116250
     51 H15          1.2670    -1.2590    -0.0650 ha         1 3F6       0.116250
     52 H16         -1.1780    -1.2820    -0.1880 ha         1 3F6       0.116250
     53 H17         -3.3790     2.9590    -0.4170 ha         1 3F6       0.205500
     54 H18         -3.4340    -1.2460     0.0570 hn         1 3F6       0.351500
     55 H19         -6.1700    -1.7090    -0.0860 ha         1 3F6       0.137000
     56 H20         -6.2730     3.2770    -0.6560 ha         1 3F6       0.116000
     57 H21         -8.4060     1.9910    -0.6880 ha         1 3F6       0.113000
     58 H22        -10.5100    -2.8880    -1.3660 h1         1 3F6       0.052700
     59 H23         -9.6360    -3.8690    -0.1700 h1         1 3F6       0.052700
     60 H24        -11.7560    -2.8460     0.7840 hc         1 3F6       0.051450
     61 H25        -10.3070    -2.3430     1.6560 hc         1 3F6       0.051450
     62 H26        -11.8670    -0.7410    -0.4410 h1         1 3F6       0.041450
     63 H27        -11.6180    -0.3260     1.2670 h1         1 3F6       0.041450
     64 H28         -9.7460     0.8420     0.3930 hn         1 3F6       0.484000
@<TRIPOS>BOND
     1     1     2 1   
     2     1     6 1   
     3     1    37 1   
     4     2     3 1   
     5     2    38 1   
     6     2    39 1   
     7     3     4 1   
     8     3    40 1   
     9     3    41 1   
    10     4     5 1   
    11     4    42 1   
    12     4    43 1   
    13     5     6 2   
    14     6     7 1   
    15     7     8 ar  
    16     7     9 ar  
    17     8    13 ar  
    18     8    44 1   
    19     9    10 ar  
    20     9    45 1   
    21    10    11 ar  
    22    10    46 1   
    23    11    12 1   
    24    11    13 ar  
    25    12    15 2   
    26    12    47 1   
    27    13    14 1   
    28    14    15 1   
    29    14    48 1   
    30    15    16 1   
    31    16    17 ar  
    32    16    19 ar  
    33    17    18 ar  
    34    17    49 1   
    35    18    21 ar  
    36    18    50 1   
    37    19    20 ar  
    38    19    51 1   
    39    20    21 ar  
    40    20    52 1   
    41    21    22 1   
    42    22    23 2   
    43    22    24 1   
    44    23    27 1   
    45    23    53 1   
    46    24    25 1   
    47    24    54 1   
    48    25    26 ar  
    49    25    27 ar  
    50    26    30 ar  
    51    26    55 1   
    52    27    28 ar  
    53    28    29 ar  
    54    28    56 1   
    55    29    30 ar  
    56    29    57 1   
    57    30    31 1   
    58    31    32 2   
    59    31    36 1   
    60    32    33 1   
    61    33    34 1   
    62    33    58 1   
    63    33    59 1   
    64    34    35 1   
    65    34    60 1   
    66    34    61 1   
    67    35    36 1   
    68    35    62 1   
    69    35    63 1   
    70    36    64 1   
@<TRIPOS>SUBSTRUCTURE
     1 3F6         1 TEMP              0 ****  ****    0 ROOT
