@<TRIPOS>MOLECULE
3F6
   64    70     1     0     0
SMALL
bcc


@<TRIPOS>ATOM
      1 NAU          9.6750    -0.1480    -0.0390 nu         1 3F6      -0.889200
      2 CAQ         10.9220    -0.8310    -0.3230 c6         1 3F6       0.220800
      3 CAM         10.6290    -2.2100    -0.8870 c6         1 3F6      -0.130400
      4 CAO          9.6140    -2.9060     0.0080 c6         1 3F6       0.120800
      5 NAS          8.4290    -2.1170     0.2710 n2         1 3F6      -0.676900
      6 CAY          8.5270    -0.8430     0.1900 ce         1 3F6       0.679800
      7 CBA          7.3030    -0.0190     0.3780 ca         1 3F6      -0.123900
      8 CAI          6.0750    -0.5660     0.0390 ca         1 3F6      -0.094000
      9 CAE          7.3760     1.2890     0.9020 ca         1 3F6      -0.147000
     10 CAG          6.2460     2.0600     1.0820 ca         1 3F6      -0.085000
     11 CBG          4.9990     1.5320     0.7300 ca         1 3F6      -0.090800
     12 CAK          3.6630     2.0200     0.7590 cc         1 3F6      -0.170700
     13 CBI          4.9420     0.2150     0.2190 ca         1 3F6      -0.052200
     14 NAW          3.6320    -0.0680    -0.0330 na         1 3F6      -0.163400
     15 CBE          2.8540     1.0160     0.2820 cd         1 3F6      -0.006300
     16 CBC          1.4050     0.9960     0.1240 ca         1 3F6      -0.028300
     17 CAB          0.6890     2.1950     0.0450 ca         1 3F6      -0.115000
     18 CAD         -0.6850     2.1930    -0.0900 ca         1 3F6      -0.115000
     19 CAA          0.6920    -0.2020     0.0570 ca         1 3F6      -0.115000
     20 CAC         -0.6840    -0.2030    -0.0880 ca         1 3F6      -0.115000
     21 CBD         -1.3990     0.9930    -0.1610 ca         1 3F6      -0.028300
     22 CBF         -2.8480     1.0110    -0.3160 cc         1 3F6      -0.006300
     23 CAL         -3.6600     2.0120    -0.7920 cd         1 3F6      -0.170700
     24 NAX         -3.6240    -0.0740     0.0040 na         1 3F6      -0.163400
     25 CBJ         -4.9350     0.2080    -0.2410 ca         1 3F6      -0.052200
     26 CAJ         -6.0680    -0.5730    -0.0540 ca         1 3F6      -0.094000
     27 CBH         -4.9960     1.5240    -0.7550 ca         1 3F6      -0.090800
     28 CAH         -6.2450     2.0510    -1.1000 ca         1 3F6      -0.085000
     29 CAF         -7.3730     1.2800    -0.9110 ca         1 3F6      -0.147000
     30 CBB         -7.2980    -0.0270    -0.3850 ca         1 3F6      -0.123900
     31 CAZ         -8.5210    -0.8500    -0.1880 ce         1 3F6       0.679800
     32 NAT         -8.4230    -2.1240    -0.2640 n2         1 3F6      -0.676900
     33 CAP         -9.6050    -2.9130     0.0100 c6         1 3F6       0.120800
     34 CAN        -10.6180    -2.2130     0.9050 c6         1 3F6      -0.130400
     35 CAR        -10.9130    -0.8380     0.3340 c6         1 3F6       0.220800
     36 NAV         -9.6680    -0.1550     0.0440 nu         1 3F6      -0.889200
     37 H1           9.5940     0.8060    -0.3420 hn         1 3F6       0.428800
     38 H2          11.4920    -0.2280    -1.0290 h1         1 3F6       0.041450
     39 H3          11.5270    -0.9170     0.5850 h1         1 3F6       0.041450
     40 H4          10.2270    -2.1130    -1.8990 hc         1 3F6       0.051450
     41 H5          11.5480    -2.7940    -0.9560 hc         1 3F6       0.051450
     42 H6           9.3040    -3.8520    -0.4440 h1         1 3F6       0.052700
     43 H7          10.0920    -3.1760     0.9580 h1         1 3F6       0.052700
     44 H8           6.0160    -1.5710    -0.3570 ha         1 3F6       0.155000
     45 H9           8.3340     1.6980     1.1950 ha         1 3F6       0.131000
     46 H10          6.3280     3.0570     1.4960 ha         1 3F6       0.134000
     47 H11          3.3350     2.9820     1.1190 ha         1 3F6       0.155500
     48 H12          3.3040    -0.9100    -0.4760 hn         1 3F6       0.301200
     49 H13          1.2130     3.1410     0.0850 ha         1 3F6       0.134250
     50 H14         -1.2100     3.1380    -0.1350 ha         1 3F6       0.134250
     51 H15          1.2030    -1.1530     0.1300 ha         1 3F6       0.134250
     52 H16         -1.1940    -1.1560    -0.1560 ha         1 3F6       0.134250
     53 H17         -3.3350     2.9740    -1.1550 ha         1 3F6       0.155500
     54 H18         -3.2940    -0.9140     0.4510 hn         1 3F6       0.301200
     55 H19         -6.0060    -1.5770     0.3450 ha         1 3F6       0.155000
     56 H20         -6.3300     3.0480    -1.5150 ha         1 3F6       0.134000
     57 H21         -8.3340     1.6890    -1.1990 ha         1 3F6       0.131000
     58 H22        -10.0870    -3.1920    -0.9350 h1         1 3F6       0.052700
     59 H23         -9.2910    -3.8550     0.4670 h1         1 3F6       0.052700
     60 H24        -11.5360    -2.7970     0.9810 hc         1 3F6       0.051450
     61 H25        -10.2120    -2.1110     1.9150 hc         1 3F6       0.051450
     62 H26        -11.5180    -0.9300    -0.5740 h1         1 3F6       0.041450
     63 H27        -11.4840    -0.2310     1.0360 h1         1 3F6       0.041450
     64 H28         -9.5840     0.7990     0.3520 hn         1 3F6       0.428800
@<TRIPOS>BOND
     1     1     2 1   
     2     1     6 1   
     3     1    37 1   
     4     2     3 1   
     5     2    38 1   
     6     2    39 1   
     7     3     4 1   
     8     3    40 1   
     9     3    41 1   
    10     4     5 1   
    11     4    42 1   
    12     4    43 1   
    13     5     6 2   
    14     6     7 1   
    15     7     8 ar  
    16     7     9 ar  
    17     8    13 ar  
    18     8    44 1   
    19     9    10 ar  
    20     9    45 1   
    21    10    11 ar  
    22    10    46 1   
    23    11    12 1   
    24    11    13 ar  
    25    12    15 2   
    26    12    47 1   
    27    13    14 1   
    28    14    15 1   
    29    14    48 1   
    30    15    16 1   
    31    16    17 ar  
    32    16    19 ar  
    33    17    18 ar  
    34    17    49 1   
    35    18    21 ar  
    36    18    50 1   
    37    19    20 ar  
    38    19    51 1   
    39    20    21 ar  
    40    20    52 1   
    41    21    22 1   
    42    22    23 2   
    43    22    24 1   
    44    23    27 1   
    45    23    53 1   
    46    24    25 1   
    47    24    54 1   
    48    25    26 ar  
    49    25    27 ar  
    50    26    30 ar  
    51    26    55 1   
    52    27    28 ar  
    53    28    29 ar  
    54    28    56 1   
    55    29    30 ar  
    56    29    57 1   
    57    30    31 1   
    58    31    32 2   
    59    31    36 1   
    60    32    33 1   
    61    33    34 1   
    62    33    58 1   
    63    33    59 1   
    64    34    35 1   
    65    34    60 1   
    66    34    61 1   
    67    35    36 1   
    68    35    62 1   
    69    35    63 1   
    70    36    64 1   
@<TRIPOS>SUBSTRUCTURE
     1 3F6         1 TEMP              0 ****  ****    0 ROOT
