@<TRIPOS>MOLECULE
3F7
   28    30     1     0     0
SMALL
bcc


@<TRIPOS>ATOM
      1 OAA          3.1740    -0.9930    -2.0350 o          1 3F7      -0.535750
      2 CAO          3.5770    -0.5010    -1.0160 c          1 3F7       0.700700
      3 CAI          4.9880    -0.2930    -0.5850 cc         1 3F7      -0.181200
      4 CAJ          4.9860     0.2870     0.6090 cd         1 3F7      -0.181200
      5 CAP          3.5740     0.4980     1.0360 c          1 3F7       0.700700
      6 OAB          3.1670     0.9910     2.0530 o          1 3F7      -0.535750
      7 NAS          2.7830    -0.0010     0.0080 n          1 3F7      -0.459600
      8 CAM          1.3710    -0.0000     0.0060 ca         1 3F7       0.057600
      9 CAF          0.6830     1.2060    -0.0090 ca         1 3F7      -0.107000
     10 CAH         -0.7020     1.2060     0.0040 ca         1 3F7      -0.107000
     11 CAE          0.6820    -1.2050     0.0190 ca         1 3F7      -0.107000
     12 CAG         -0.7030    -1.2050     0.0020 ca         1 3F7      -0.107000
     13 CAN         -1.3900     0.0010     0.0020 ca         1 3F7       0.057600
     14 NAT         -2.8020     0.0020    -0.0010 n          1 3F7      -0.459600
     15 CAQ         -3.5930     0.4860    -1.0350 c          1 3F7       0.700700
     16 OAC         -3.1850     0.9650    -2.0590 o          1 3F7      -0.535750
     17 CAK         -5.0050     0.2810    -0.6070 cc         1 3F7      -0.181200
     18 CAL         -5.0080    -0.2820     0.5950 cd         1 3F7      -0.181200
     19 CAR         -3.5970    -0.4850     1.0300 c          1 3F7       0.700700
     20 OAD         -3.1940    -0.9640     2.0550 o          1 3F7      -0.535750
     21 H1           5.8310    -0.5850    -1.1910 ha         1 3F7       0.177000
     22 H2           5.8270     0.5770     1.2200 ha         1 3F7       0.177000
     23 H3           1.2240     2.1420    -0.0320 ha         1 3F7       0.147000
     24 H4          -1.2420     2.1430     0.0150 ha         1 3F7       0.147000
     25 H5           1.2220    -2.1420     0.0430 ha         1 3F7       0.147000
     26 H6          -1.2440    -2.1420    -0.0120 ha         1 3F7       0.147000
     27 H7          -5.8460     0.5640    -1.2220 ha         1 3F7       0.177000
     28 H8          -5.8510    -0.5670     1.2050 ha         1 3F7       0.177000
@<TRIPOS>BOND
     1     1     2 2   
     2     2     3 1   
     3     2     7 1   
     4     3     4 2   
     5     3    21 1   
     6     4     5 1   
     7     4    22 1   
     8     5     6 2   
     9     5     7 1   
    10     7     8 1   
    11     8     9 ar  
    12     8    11 ar  
    13     9    10 ar  
    14     9    23 1   
    15    10    13 ar  
    16    10    24 1   
    17    11    12 ar  
    18    11    25 1   
    19    12    13 ar  
    20    12    26 1   
    21    13    14 1   
    22    14    15 1   
    23    14    19 1   
    24    15    16 2   
    25    15    17 1   
    26    17    18 2   
    27    17    27 1   
    28    18    19 1   
    29    18    28 1   
    30    19    20 2   
@<TRIPOS>SUBSTRUCTURE
     1 3F7         1 TEMP              0 ****  ****    0 ROOT
