@<TRIPOS>MOLECULE
3F7
   28    30     1     0     0
SMALL
No Charge or Current Charge


@<TRIPOS>ATOM
      1 OAA          3.2410    -1.6720    -1.6030 o          1 3F7      -0.460250
      2 CAO          3.6320    -0.8450    -0.7930 c          1 3F7       0.558200
      3 CAI          5.0130    -0.5010    -0.4610 cc         1 3F7      -0.231200
      4 CAJ          5.0130     0.4950     0.4850 cd         1 3F7      -0.231200
      5 CAP          3.6280     0.8420     0.8130 c          1 3F7       0.558200
      6 OAB          3.2380     1.6710     1.6220 o          1 3F7      -0.460250
      7 NAS          2.8490    -0.0010     0.0090 n          1 3F7      -0.325600
      8 CAM          1.4100    -0.0010     0.0060 ca         1 3F7       0.057600
      9 CAF          0.6940     1.2120    -0.0020 ca         1 3F7      -0.089000
     10 CAH         -0.7120     1.2120    -0.0060 ca         1 3F7      -0.089000
     11 CAE          0.6930    -1.2140     0.0110 ca         1 3F7      -0.089000
     12 CAG         -0.7130    -1.2130     0.0100 ca         1 3F7      -0.089000
     13 CAN         -1.4300    -0.0000     0.0010 ca         1 3F7       0.057600
     14 NAT         -2.8680     0.0000    -0.0020 n          1 3F7      -0.325600
     15 CAQ         -3.6480     0.8340    -0.8170 c          1 3F7       0.558200
     16 OAC         -3.2550     1.6510    -1.6350 o          1 3F7      -0.460250
     17 CAK         -5.0310     0.4940    -0.4850 cc         1 3F7      -0.231200
     18 CAL         -5.0340    -0.4910     0.4730 cd         1 3F7      -0.231200
     19 CAR         -3.6510    -0.8330     0.8100 c          1 3F7       0.558200
     20 OAD         -3.2640    -1.6520     1.6310 o          1 3F7      -0.460250
     21 H1           5.8590    -0.9930    -0.9300 ha         1 3F7       0.227000
     22 H2           5.8540     0.9900     0.9600 ha         1 3F7       0.227000
     23 H3           1.2230     2.1610    -0.0170 ha         1 3F7       0.129000
     24 H4          -1.2410     2.1620    -0.0030 ha         1 3F7       0.129000
     25 H5           1.2210    -2.1630     0.0280 ha         1 3F7       0.129000
     26 H6          -1.2420    -2.1630     0.0050 ha         1 3F7       0.129000
     27 H7          -5.8750     0.9800    -0.9640 ha         1 3F7       0.227000
     28 H8          -5.8770    -0.9790     0.9510 ha         1 3F7       0.227000
@<TRIPOS>BOND
     1     1     2 2   
     2     2     3 1   
     3     2     7 1   
     4     3     4 2   
     5     3    21 1   
     6     4     5 1   
     7     4    22 1   
     8     5     6 2   
     9     5     7 1   
    10     7     8 1   
    11     8     9 ar  
    12     8    11 ar  
    13     9    10 ar  
    14     9    23 1   
    15    10    13 ar  
    16    10    24 1   
    17    11    12 ar  
    18    11    25 1   
    19    12    13 ar  
    20    12    26 1   
    21    13    14 1   
    22    14    15 1   
    23    14    19 1   
    24    15    16 2   
    25    15    17 1   
    26    17    18 2   
    27    17    27 1   
    28    18    19 1   
    29    18    28 1   
    30    19    20 2   
@<TRIPOS>SUBSTRUCTURE
     1 3F7         1 TEMP              0 ****  ****    0 ROOT
