@<TRIPOS>MOLECULE
3F8
   38    39     1     0     0
SMALL
No Charge or Current Charge


@<TRIPOS>ATOM
      1 OAA          2.7510     1.2560    -1.6450 o          1 3F8      -0.473750
      2 CAQ          3.7390     0.9680    -0.9880 c          1 3F8       0.556200
      3 CAE          4.8800     1.8140    -0.6330 cc         1 3F8      -0.235950
      4 CAF          5.7890     1.0720     0.0890 cd         1 3F8      -0.235950
      5 CAR          5.2790    -0.2950     0.2390 c          1 3F8       0.556200
      6 OAB          5.7970    -1.2470     0.8030 o          1 3F8      -0.473750
      7 NAU          4.0510    -0.2630    -0.4150 n          1 3F8      -0.391400
      8 CAM          3.1950    -1.4620    -0.5600 c3         1 3F8       0.115500
      9 CAK          2.2420    -1.6950     0.6340 c3         1 3F8       0.137100
     10 OAO          1.3640    -0.5620     0.7560 os         1 3F8      -0.438000
     11 CAI          0.4310    -0.6420     1.8520 c3         1 3F8       0.162100
     12 CAJ         -0.4560     0.6250     1.8510 c3         1 3F8       0.162100
     13 OAP         -1.3800     0.5490     0.7480 os         1 3F8      -0.438000
     14 CAL         -2.2580     1.6810     0.6230 c3         1 3F8       0.137100
     15 CAN         -3.2010     1.4520    -0.5800 c3         1 3F8       0.115500
     16 NAV         -4.0590     0.2540    -0.4450 n          1 3F8      -0.391400
     17 CAS         -5.2920     0.2820     0.1990 c          1 3F8       0.556200
     18 OAC         -5.8110     1.2340     0.7610 o          1 3F8      -0.473750
     19 CAG         -5.8010    -1.0800     0.0420 cc         1 3F8      -0.235950
     20 CAH         -4.8880    -1.8230    -0.6760 cd         1 3F8      -0.235950
     21 CAT         -3.7410    -0.9750    -1.0200 c          1 3F8       0.556200
     22 OAD         -2.7490    -1.2640    -1.6710 o          1 3F8      -0.473750
     23 H1           4.9410     2.8540    -0.9360 ha         1 3F8       0.223500
     24 H2           6.7450     1.3730     0.5030 ha         1 3F8       0.223500
     25 H3           2.5980    -1.3740    -1.4770 h1         1 3F8       0.075200
     26 H4           3.8350    -2.3460    -0.6770 h1         1 3F8       0.075200
     27 H5           1.6670    -2.6140     0.4620 h1         1 3F8       0.032200
     28 H6           2.8350    -1.8270     1.5490 h1         1 3F8       0.032200
     29 H7          -0.2030    -1.5350     1.7680 h1         1 3F8       0.029700
     30 H8           0.9710    -0.6960     2.8070 h1         1 3F8       0.029700
     31 H9          -1.0040     0.6750     2.8020 h1         1 3F8       0.029700
     32 H10          0.1780     1.5170     1.7750 h1         1 3F8       0.029700
     33 H11         -2.8580     1.8100     1.5330 h1         1 3F8       0.032200
     34 H12         -1.6810     2.6010     0.4580 h1         1 3F8       0.032200
     35 H13         -3.8410     2.3370    -0.6980 h1         1 3F8       0.075200
     36 H14         -2.5970     1.3680    -1.4920 h1         1 3F8       0.075200
     37 H15         -6.7600    -1.3880     0.4460 ha         1 3F8       0.223500
     38 H16         -4.9420    -2.8620    -0.9850 ha         1 3F8       0.223500
@<TRIPOS>BOND
     1     1     2 2   
     2     2     3 1   
     3     2     7 1   
     4     3     4 2   
     5     3    23 1   
     6     4     5 1   
     7     4    24 1   
     8     5     6 2   
     9     5     7 1   
    10     7     8 1   
    11     8     9 1   
    12     8    25 1   
    13     8    26 1   
    14     9    10 1   
    15     9    27 1   
    16     9    28 1   
    17    10    11 1   
    18    11    12 1   
    19    11    29 1   
    20    11    30 1   
    21    12    13 1   
    22    12    31 1   
    23    12    32 1   
    24    13    14 1   
    25    14    15 1   
    26    14    33 1   
    27    14    34 1   
    28    15    16 1   
    29    15    35 1   
    30    15    36 1   
    31    16    17 1   
    32    16    21 1   
    33    17    18 2   
    34    17    19 1   
    35    19    20 2   
    36    19    37 1   
    37    20    21 1   
    38    20    38 1   
    39    21    22 2   
@<TRIPOS>SUBSTRUCTURE
     1 3F8         1 TEMP              0 ****  ****    0 ROOT
