@<TRIPOS>MOLECULE
3F8
   38    39     1     0     0
SMALL
bcc


@<TRIPOS>ATOM
      1 OAA          2.6650     0.9670    -1.8640 o          1 3F8      -0.549250
      2 CAQ          3.5750     0.7960    -1.0960 c          1 3F8       0.698700
      3 CAE          4.6060     1.7880    -0.6700 cc         1 3F8      -0.185950
      4 CAF          5.4480     1.1890     0.1620 cd         1 3F8      -0.185950
      5 CAR          5.0080    -0.2260     0.3340 c          1 3F8       0.698700
      6 OAB          5.5160    -1.0810     1.0160 o          1 3F8      -0.549250
      7 NAU          3.8860    -0.3890    -0.4530 n          1 3F8      -0.525400
      8 CAM          3.1040    -1.6020    -0.5230 c3         1 3F8       0.115500
      9 CAK          2.1480    -1.7400     0.6440 c3         1 3F8       0.113900
     10 OAO          1.2910    -0.6320     0.6620 os         1 3F8      -0.391600
     11 CAI          0.4090    -0.6470     1.7550 c3         1 3F8       0.138900
     12 CAJ         -0.4330     0.6020     1.7550 c3         1 3F8       0.138900
     13 OAP         -1.3000     0.5970     0.6500 os         1 3F8      -0.391600
     14 CAL         -2.1470     1.7120     0.6260 c3         1 3F8       0.113900
     15 CAN         -3.0910     1.5890    -0.5520 c3         1 3F8       0.115500
     16 NAV         -3.8950     0.3880    -0.4920 n          1 3F8      -0.525400
     17 CAS         -5.0230     0.2420     0.2900 c          1 3F8       0.698700
     18 OAC         -5.5240     1.1050     0.9670 o          1 3F8      -0.549250
     19 CAG         -5.4800    -1.1680     0.1200 cc         1 3F8      -0.185950
     20 CAH         -4.6390    -1.7810    -0.7030 cd         1 3F8      -0.185950
     21 CAT         -3.5910    -0.8040    -1.1240 c          1 3F8       0.698700
     22 OAD         -2.6760    -0.9920    -1.8810 o          1 3F8      -0.549250
     23 H1           4.6160     2.8080    -1.0250 ha         1 3F8       0.173500
     24 H2           6.3150     1.5960     0.6580 ha         1 3F8       0.173500
     25 H3           2.5590    -1.5960    -1.4670 h1         1 3F8       0.075200
     26 H4           3.7760    -2.4600    -0.5440 h1         1 3F8       0.075200
     27 H5           1.5940    -2.6820     0.5290 h1         1 3F8       0.032200
     28 H6           2.7110    -1.8160     1.5850 h1         1 3F8       0.032200
     29 H7          -0.2380    -1.5350     1.7290 h1         1 3F8       0.029700
     30 H8           0.9620    -0.6830     2.7040 h1         1 3F8       0.029700
     31 H9          -0.9970     0.6310     2.6970 h1         1 3F8       0.029700
     32 H10          0.2150     1.4900     1.7440 h1         1 3F8       0.029700
     33 H11         -2.7210     1.7900     1.5600 h1         1 3F8       0.032200
     34 H12         -1.5830     2.6490     0.5220 h1         1 3F8       0.032200
     35 H13         -3.7490     2.4570    -0.5800 h1         1 3F8       0.075200
     36 H14         -2.5360     1.5730    -1.4900 h1         1 3F8       0.075200
     37 H15         -6.3560    -1.5620     0.6100 ha         1 3F8       0.173500
     38 H16         -4.6590    -2.8020    -1.0530 ha         1 3F8       0.173500
@<TRIPOS>BOND
     1     1     2 2   
     2     2     3 1   
     3     2     7 1   
     4     3     4 2   
     5     3    23 1   
     6     4     5 1   
     7     4    24 1   
     8     5     6 2   
     9     5     7 1   
    10     7     8 1   
    11     8     9 1   
    12     8    25 1   
    13     8    26 1   
    14     9    10 1   
    15     9    27 1   
    16     9    28 1   
    17    10    11 1   
    18    11    12 1   
    19    11    29 1   
    20    11    30 1   
    21    12    13 1   
    22    12    31 1   
    23    12    32 1   
    24    13    14 1   
    25    14    15 1   
    26    14    33 1   
    27    14    34 1   
    28    15    16 1   
    29    15    35 1   
    30    15    36 1   
    31    16    17 1   
    32    16    21 1   
    33    17    18 2   
    34    17    19 1   
    35    19    20 2   
    36    19    37 1   
    37    20    21 1   
    38    20    38 1   
    39    21    22 2   
@<TRIPOS>SUBSTRUCTURE
     1 3F8         1 TEMP              0 ****  ****    0 ROOT
