@<TRIPOS>MOLECULE
3F9
   67    71     1     0     0
SMALL
No Charge or Current Charge


@<TRIPOS>ATOM
      1 N1          -1.2080     0.6910     0.6180 n          1 3F9      -0.396800
      2 C4           6.7480     1.4010    -2.3060 ca         1 3F9      -0.113000
      3 C5          -6.9570    -1.0720    -2.0620 ca         1 3F9      -0.101000
      4 C6          -7.2610    -0.2030     0.5960 ca         1 3F9      -0.094000
      5 C7          -4.5300    -0.9710    -1.8140 ca         1 3F9      -0.100000
      6 C8          -3.3970    -0.6980    -1.0290 ca         1 3F9      -0.091000
      7 C10          6.2230     1.6090    -1.0150 ca         1 3F9      -0.096500
      8 C13         -5.9710    -0.3640     0.0550 ca         1 3F9      -0.043000
      9 C15          6.2730    -0.7820    -0.6260 ca         1 3F9      -0.076800
     10 C17         -2.3360     0.0340     1.1740 c          1 3F9       0.613700
     11 C20          1.6590    -2.7720     0.1970 c6         1 3F9      -0.075400
     12 C21          0.5910    -1.8160     0.7590 c6         1 3F9      -0.071400
     13 C22          3.0090    -2.5800     0.9250 c6         1 3F9       0.161800
     14 C24          1.1140    -0.3610     0.7050 c6         1 3F9      -0.082700
     15 C26          0.1040     0.6520     1.3150 c3         1 3F9       0.096000
     16 C28         -1.7930     3.1080     0.0160 c3         1 3F9       0.134600
     17 C1          -8.2420    -0.9090    -1.5180 ca         1 3F9      -0.102000
     18 C2          -8.3950    -0.4750    -0.1900 ca         1 3F9      -0.108000
     19 C3           7.0360     0.0930    -2.7510 ca         1 3F9      -0.113000
     20 C9           6.8000    -1.0100    -1.9080 ca         1 3F9      -0.096500
     21 C11         -4.8340    -0.0930     0.8390 ca         1 3F9      -0.061000
     22 C12         -5.8190    -0.8010    -1.2790 ca         1 3F9      -0.030000
     23 C14         -3.5380    -0.2310     0.2980 ca         1 3F9      -0.138600
     24 C16          5.9910     0.4950    -0.1920 ca         1 3F9      -0.076800
     25 C18          5.9530    -1.8140     0.4250 c5         1 3F9      -0.031600
     26 C19          5.4560     0.4960     1.2150 c5         1 3F9      -0.031600
     27 C23          2.4970    -0.2490     1.4050 c6         1 3F9       0.172800
     28 C25          4.9430    -1.0090     1.3640 c5         1 3F9       0.183500
     29 C27         -1.3580     1.7030    -0.4680 c3         1 3F9       0.104000
     30 N2           3.5290    -1.1740     0.8220 n3         1 3F9      -0.711600
     31 O1          -2.3190    -0.3880     2.3240 o          1 3F9      -0.592100
     32 O2          -0.7410     3.6960     0.8030 os         1 3F9      -0.453000
     33 C33         -1.0420     5.0020     1.3210 c3         1 3F9       0.145900
     34 H2          -6.8470    -1.4110    -3.0900 ha         1 3F9       0.114000
     35 H3          -7.3880     0.1320     1.6230 ha         1 3F9       0.115000
     36 H4          -4.4030    -1.3230    -2.8350 ha         1 3F9       0.116000
     37 H5          -2.4070    -0.8650    -1.4490 ha         1 3F9       0.119000
     38 H6           6.0020     2.6130    -0.6620 ha         1 3F9       0.111000
     39 H7           1.3230    -3.8120     0.3040 hc         1 3F9       0.045200
     40 H8           1.7920    -2.5940    -0.8790 hc         1 3F9       0.045200
     41 H9          -0.3360    -1.9180     0.1790 hc         1 3F9       0.046200
     42 H10          0.3510    -2.0930     1.7950 hc         1 3F9       0.046200
     43 H11          2.8820    -2.8530     1.9830 h1         1 3F9       0.028200
     44 H12          3.7020    -3.3150     0.5000 h1         1 3F9       0.028200
     45 H13          1.2430    -0.0730    -0.3470 hc         1 3F9       0.059700
     46 H14          0.5620     1.6480     1.2730 h1         1 3F9       0.067700
     47 H15         -0.0320     0.4190     2.3790 h1         1 3F9       0.067700
     48 H16         -2.0050     3.7340    -0.8610 h1         1 3F9       0.029200
     49 H17         -2.7170     3.0190     0.6020 h1         1 3F9       0.029200
     50 H18         -9.1200    -1.1190    -2.1260 ha         1 3F9       0.114000
     51 H19         -9.3900    -0.3490     0.2300 ha         1 3F9       0.114000
     52 H20          7.4430    -0.0630    -3.7480 ha         1 3F9       0.109000
     53 H21          7.0200    -2.0210    -2.2430 ha         1 3F9       0.111000
     54 H22         -4.9550     0.2390     1.8680 ha         1 3F9       0.123000
     55 H23          5.5730    -2.7410    -0.0090 hc         1 3F9       0.054700
     56 H24          6.8560    -2.0850     0.9820 hc         1 3F9       0.054700
     57 H25          6.2720     0.6790     1.9230 hc         1 3F9       0.054700
     58 H26          4.7280     1.2860     1.4030 hc         1 3F9       0.054700
     59 H27          2.7920     0.8010     1.3070 h1         1 3F9       0.032200
     60 H28          2.3770    -0.4490     2.4800 h1         1 3F9       0.032200
     61 H29          4.9950    -1.3490     2.4080 h1         1 3F9       0.030700
     62 H30         -0.3990     1.8000    -0.9940 h1         1 3F9       0.062200
     63 H31         -2.0820     1.3710    -1.2170 h1         1 3F9       0.062200
     64 H33         -0.1970     5.3830     1.9070 h1         1 3F9       0.029033
     65 H34         -1.2400     5.7090     0.5050 h1         1 3F9       0.029033
     66 H35         -1.9240     4.9680     1.9740 h1         1 3F9       0.029033
     67 H1           6.9330     2.2510    -2.9590 ha         1 3F9       0.109000
@<TRIPOS>BOND
     1     1    10 1   
     2     1    15 1   
     3     1    29 1   
     4     2     7 ar  
     5     2    19 ar  
     6     2    67 1   
     7     3    17 ar  
     8     3    22 ar  
     9     3    34 1   
    10     4     8 ar  
    11     4    18 ar  
    12     4    35 1   
    13     5     6 ar  
    14     5    22 ar  
    15     5    36 1   
    16     6    23 ar  
    17     6    37 1   
    18     7    24 ar  
    19     7    38 1   
    20     8    21 ar  
    21     8    22 ar  
    22     9    20 ar  
    23     9    24 ar  
    24     9    25 1   
    25    10    23 1   
    26    10    31 2   
    27    11    12 1   
    28    11    13 1   
    29    11    39 1   
    30    11    40 1   
    31    12    14 1   
    32    12    41 1   
    33    12    42 1   
    34    13    30 1   
    35    13    43 1   
    36    13    44 1   
    37    14    15 1   
    38    14    27 1   
    39    14    45 1   
    40    15    46 1   
    41    15    47 1   
    42    16    29 1   
    43    16    32 1   
    44    16    48 1   
    45    16    49 1   
    46    17    18 ar  
    47    17    50 1   
    48    18    51 1   
    49    19    20 ar  
    50    19    52 1   
    51    20    53 1   
    52    21    23 ar  
    53    21    54 1   
    54    24    26 1   
    55    25    28 1   
    56    25    55 1   
    57    25    56 1   
    58    26    28 1   
    59    26    57 1   
    60    26    58 1   
    61    27    30 1   
    62    27    59 1   
    63    27    60 1   
    64    28    30 1   
    65    28    61 1   
    66    29    62 1   
    67    29    63 1   
    68    32    33 1   
    69    33    64 1   
    70    33    65 1   
    71    33    66 1   
@<TRIPOS>SUBSTRUCTURE
     1 3F9         1 TEMP              0 ****  ****    0 ROOT
