@<TRIPOS>MOLECULE
3F9
   67    71     1     0     0
SMALL
bcc


@<TRIPOS>ATOM
      1 N1          -1.1220     0.3490     0.6050 n          1 3F9      -0.463800
      2 C4           6.5650     2.0540    -1.6880 ca         1 3F9      -0.131000
      3 C5          -7.1050    -0.8770    -1.6040 ca         1 3F9      -0.119000
      4 C6          -6.9300     0.8750     0.5650 ca         1 3F9      -0.112000
      5 C7          -4.7110    -1.4430    -1.3350 ca         1 3F9      -0.118000
      6 C8          -3.5250    -1.2740    -0.6800 ca         1 3F9      -0.109000
      7 C10          6.0300     1.9500    -0.4050 ca         1 3F9      -0.114500
      8 C13         -5.7780     0.1580     0.1650 ca         1 3F9      -0.043000
      9 C15          6.2180    -0.4510    -0.5620 ca         1 3F9      -0.076800
     10 C17         -2.1530    -0.2910     1.1920 c          1 3F9       0.680700
     11 C20          1.8260    -2.8910    -0.0380 c6         1 3F9      -0.075400
     12 C21          0.7230    -2.0140     0.5330 c6         1 3F9      -0.071400
     13 C22          3.1240    -2.6800     0.7210 c6         1 3F9       0.161800
     14 C24          1.1910    -0.5660     0.5790 c6         1 3F9      -0.082700
     15 C26          0.1840     0.3670     1.2500 c3         1 3F9       0.096000
     16 C28         -1.8250     2.5060    -0.4260 c3         1 3F9       0.111400
     17 C1          -8.2040    -0.1710    -1.1950 ca         1 3F9      -0.120000
     18 C2          -8.1150     0.7140    -0.1000 ca         1 3F9      -0.126000
     19 C3           6.9250     0.9140    -2.3960 ca         1 3F9      -0.131000
     20 C9           6.7540    -0.3500    -1.8340 ca         1 3F9      -0.114500
     21 C11         -4.5410     0.3000     0.8360 ca         1 3F9      -0.079000
     22 C12         -5.8670    -0.7310    -0.9370 ca         1 3F9      -0.030000
     23 C14         -3.4330    -0.3870     0.4180 ca         1 3F9      -0.138600
     24 C16          5.8600     0.6930     0.1480 ca         1 3F9      -0.076800
     25 C18          5.9340    -1.6690     0.2690 c5         1 3F9      -0.031600
     26 C19          5.3430     0.2910     1.4990 c5         1 3F9      -0.031600
     27 C23          2.5270    -0.4570     1.3100 c6         1 3F9       0.172800
     28 C25          4.8840    -1.1630     1.2830 c5         1 3F9       0.183500
     29 C27         -1.2630     1.1130    -0.6260 c3         1 3F9       0.104000
     30 N2           3.5490    -1.2870     0.6940 n3         1 3F9      -0.711600
     31 O1          -2.0900    -0.8090     2.2990 o          1 3F9      -0.592100
     32 O2          -0.9740     3.2550     0.4000 os         1 3F9      -0.406600
     33 C33         -1.4710     4.5420     0.6650 c3         1 3F9       0.122700
     34 H2          -7.1720    -1.5560    -2.4460 ha         1 3F9       0.132000
     35 H3          -6.8600     1.5550     1.4050 ha         1 3F9       0.133000
     36 H4          -4.7760    -2.1280    -2.1710 ha         1 3F9       0.134000
     37 H5          -2.6490    -1.8260    -0.9990 ha         1 3F9       0.137000
     38 H6           5.7510     2.8430     0.1420 ha         1 3F9       0.129000
     39 H7           1.5470    -3.9460     0.0130 hc         1 3F9       0.045200
     40 H8           1.9820    -2.6510    -1.0950 hc         1 3F9       0.045200
     41 H9          -0.1850    -2.1090    -0.0670 hc         1 3F9       0.046200
     42 H10          0.4740    -2.3480     1.5470 hc         1 3F9       0.046200
     43 H11          2.9940    -3.0270     1.7630 h1         1 3F9       0.028200
     44 H12          3.9020    -3.3070     0.2840 h1         1 3F9       0.028200
     45 H13          1.3610    -0.2260    -0.4510 hc         1 3F9       0.059700
     46 H14          0.5590     1.3910     1.2390 h1         1 3F9       0.067700
     47 H15          0.0540     0.0830     2.2940 h1         1 3F9       0.067700
     48 H16         -1.9360     2.9760    -1.4140 h1         1 3F9       0.029200
     49 H17         -2.8330     2.4440     0.0070 h1         1 3F9       0.029200
     50 H18         -9.1480    -0.2890    -1.7120 ha         1 3F9       0.132000
     51 H19         -8.9900     1.2700     0.2110 ha         1 3F9       0.132000
     52 H20          7.3370     1.0080    -3.3930 ha         1 3F9       0.127000
     53 H21          7.0300    -1.2370    -2.3920 ha         1 3F9       0.129000
     54 H22         -4.4810     0.9740     1.6830 ha         1 3F9       0.141000
     55 H23          5.6040    -2.5260    -0.3160 hc         1 3F9       0.054700
     56 H24          6.8390    -1.9840     0.8010 hc         1 3F9       0.054700
     57 H25          6.1730     0.2730     2.2130 hc         1 3F9       0.054700
     58 H26          4.5990     0.9620     1.9210 hc         1 3F9       0.054700
     59 H27          2.8370     0.5880     1.2820 h1         1 3F9       0.032200
     60 H28          2.3760    -0.7190     2.3750 h1         1 3F9       0.032200
     61 H29          4.9380    -1.7210     2.2310 h1         1 3F9       0.030700
     62 H30         -0.2800     1.1770    -1.0950 h1         1 3F9       0.062200
     63 H31         -1.8980     0.5910    -1.3410 h1         1 3F9       0.062200
     64 H33         -0.7710     5.0420     1.3320 h1         1 3F9       0.029033
     65 H34         -1.5690     5.1410    -0.2480 h1         1 3F9       0.029033
     66 H35         -2.4530     4.5090     1.1520 h1         1 3F9       0.029033
     67 H1           6.6980     3.0300    -2.1380 ha         1 3F9       0.127000
@<TRIPOS>BOND
     1     1    10 1   
     2     1    15 1   
     3     1    29 1   
     4     2     7 ar  
     5     2    19 ar  
     6     2    67 1   
     7     3    17 ar  
     8     3    22 ar  
     9     3    34 1   
    10     4     8 ar  
    11     4    18 ar  
    12     4    35 1   
    13     5     6 ar  
    14     5    22 ar  
    15     5    36 1   
    16     6    23 ar  
    17     6    37 1   
    18     7    24 ar  
    19     7    38 1   
    20     8    21 ar  
    21     8    22 ar  
    22     9    20 ar  
    23     9    24 ar  
    24     9    25 1   
    25    10    23 1   
    26    10    31 2   
    27    11    12 1   
    28    11    13 1   
    29    11    39 1   
    30    11    40 1   
    31    12    14 1   
    32    12    41 1   
    33    12    42 1   
    34    13    30 1   
    35    13    43 1   
    36    13    44 1   
    37    14    15 1   
    38    14    27 1   
    39    14    45 1   
    40    15    46 1   
    41    15    47 1   
    42    16    29 1   
    43    16    32 1   
    44    16    48 1   
    45    16    49 1   
    46    17    18 ar  
    47    17    50 1   
    48    18    51 1   
    49    19    20 ar  
    50    19    52 1   
    51    20    53 1   
    52    21    23 ar  
    53    21    54 1   
    54    24    26 1   
    55    25    28 1   
    56    25    55 1   
    57    25    56 1   
    58    26    28 1   
    59    26    57 1   
    60    26    58 1   
    61    27    30 1   
    62    27    59 1   
    63    27    60 1   
    64    28    30 1   
    65    28    61 1   
    66    29    62 1   
    67    29    63 1   
    68    32    33 1   
    69    33    64 1   
    70    33    65 1   
    71    33    66 1   
@<TRIPOS>SUBSTRUCTURE
     1 3F9         1 TEMP              0 ****  ****    0 ROOT
