@<TRIPOS>MOLECULE
3FA
   14    14     1     0     0
SMALL
No Charge or Current Charge


@<TRIPOS>ATOM
      1 O1           0.2500    -2.0410    -0.0490 oh         1 3FA      -0.550100
      2 C1           0.1820    -0.6650    -0.0290 ca         1 3FA      -0.003900
      3 C3          -1.0590     0.0010    -0.1090 ca         1 3FA       0.129000
      4 F1          -2.2060    -0.7090    -0.2060 f          1 3FA      -0.184000
      5 C5          -1.1160     1.4050    -0.0880 ca         1 3FA      -0.153000
      6 C6           0.0690     2.1560     0.0130 ca         1 3FA      -0.077000
      7 C4           1.3100     1.4980     0.0920 ca         1 3FA      -0.138000
      8 C2           1.3650     0.0950     0.0710 ca         1 3FA       0.147100
      9 O2           2.5650    -0.5460     0.1480 oh         1 3FA      -0.529100
     10 HO1         -0.6650    -2.3990    -0.1230 ho         1 3FA       0.482000
     11 H5          -2.0780     1.9090    -0.1500 ha         1 3FA       0.135000
     12 H6           0.0270     3.2440     0.0290 ha         1 3FA       0.123000
     13 H4           2.2280     2.0750     0.1700 ha         1 3FA       0.136000
     14 HO2          2.3560    -1.5070     0.1160 ho         1 3FA       0.485000
@<TRIPOS>BOND
     1     1     2 1   
     2     1    10 1   
     3     2     3 ar  
     4     2     8 ar  
     5     3     4 1   
     6     3     5 ar  
     7     5     6 ar  
     8     5    11 1   
     9     6     7 ar  
    10     6    12 1   
    11     7     8 ar  
    12     7    13 1   
    13     8     9 1   
    14     9    14 1   
@<TRIPOS>SUBSTRUCTURE
     1 3FA         1 TEMP              0 ****  ****    0 ROOT
