@<TRIPOS>MOLECULE
3FA
   14    14     1     0     0
SMALL
bcc


@<TRIPOS>ATOM
      1 O1           0.2280    -2.0010     0.0670 oh         1 3FA      -0.511100
      2 C1           0.1360    -0.6520     0.0250 ca         1 3FA      -0.003900
      3 C3          -1.0590     0.0440    -0.0650 ca         1 3FA       0.093900
      4 F1          -2.1920    -0.6800    -0.1520 f          1 3FA      -0.148900
      5 C5          -1.1220     1.4230    -0.0820 ca         1 3FA      -0.171000
      6 C6           0.0680     2.1310    -0.0030 ca         1 3FA      -0.095000
      7 C4           1.2840     1.4690     0.0780 ca         1 3FA      -0.156000
      8 C2           1.3260     0.0800     0.0940 ca         1 3FA       0.147100
      9 O2           2.5170    -0.5410     0.1770 oh         1 3FA      -0.490100
     10 HO1         -0.5420    -2.4210    -0.3320 ho         1 3FA       0.443000
     11 H5          -2.0800     1.9210    -0.1380 ha         1 3FA       0.153000
     12 H6           0.0490     3.2120    -0.0100 ha         1 3FA       0.141000
     13 H4           2.2110     2.0260     0.1310 ha         1 3FA       0.154000
     14 HO2          2.4060    -1.4960     0.0970 ho         1 3FA       0.446000
@<TRIPOS>BOND
     1     1     2 1   
     2     1    10 1   
     3     2     3 ar  
     4     2     8 ar  
     5     3     4 1   
     6     3     5 ar  
     7     5     6 ar  
     8     5    11 1   
     9     6     7 ar  
    10     6    12 1   
    11     7     8 ar  
    12     7    13 1   
    13     8     9 1   
    14     9    14 1   
@<TRIPOS>SUBSTRUCTURE
     1 3FA         1 TEMP              0 ****  ****    0 ROOT
