@<TRIPOS>MOLECULE
3FB
   25    25     1     0     0
SMALL
No Charge or Current Charge


@<TRIPOS>ATOM
      1 N            0.8090     1.2750     0.4340 n8         1 3FB      -0.959200
      2 CA           0.9610    -0.0540    -0.1800 c3         1 3FB       0.177500
      3 CB          -0.2000    -0.2960    -1.1790 c3         1 3FB      -0.089100
      4 CG          -1.5850    -0.1690    -0.5480 ca         1 3FB      -0.057300
      5 CD1         -2.4290     0.9090    -0.8860 ca         1 3FB      -0.113500
      6 CE1         -3.7040     1.0220    -0.3040 ca         1 3FB      -0.114000
      7 CH          -4.1450     0.0570     0.6160 ca         1 3FB      -0.130000
      8 CE2         -3.3110    -1.0220     0.9540 ca         1 3FB      -0.114000
      9 CD2         -2.0360    -1.1350     0.3730 ca         1 3FB      -0.113500
     10 CCC          2.3500    -0.2040    -0.8460 c3         1 3FB      -0.197400
     11 C            3.4370    -0.4360     0.2160 c          1 3FB       0.732000
     12 O            3.6090    -1.5780     0.6190 o          1 3FB      -0.740000
     13 OXT          4.0950     0.5180     0.6050 o          1 3FB      -0.740000
     14 H            0.9920     1.9850    -0.2810 hn         1 3FB       0.369500
     15 HN2         -0.1830     1.4050     0.6570 hn         1 3FB       0.369500
     16 HA           0.8710    -0.8130     0.6130 h1         1 3FB       0.079700
     17 HB1         -0.0990     0.3970    -2.0240 hc         1 3FB       0.042700
     18 HB2         -0.0960    -1.3020    -1.6040 hc         1 3FB       0.042700
     19 HD1         -2.0970     1.6610    -1.5980 ha         1 3FB       0.112500
     20 HE1         -4.3500     1.8560    -0.5680 ha         1 3FB       0.100500
     21 HH          -5.1320     0.1440     1.0660 ha         1 3FB       0.098000
     22 HE2         -3.6520    -1.7710     1.6660 ha         1 3FB       0.100500
     23 HD2         -1.3980    -1.9750     0.6390 ha         1 3FB       0.112500
     24 HC1          2.2700    -1.1030    -1.4710 hc         1 3FB       0.014200
     25 HC2          2.5420     0.7080    -1.4250 hc         1 3FB       0.014200
@<TRIPOS>BOND
     1     1     2 1   
     2     1    14 1   
     3     1    15 1   
     4     2     3 1   
     5     2    10 1   
     6     2    16 1   
     7     3     4 1   
     8     3    17 1   
     9     3    18 1   
    10     4     5 ar  
    11     4     9 ar  
    12     5     6 ar  
    13     5    19 1   
    14     6     7 ar  
    15     6    20 1   
    16     7     8 ar  
    17     7    21 1   
    18     8     9 ar  
    19     8    22 1   
    20     9    23 1   
    21    10    11 1   
    22    10    24 1   
    23    10    25 1   
    24    11    12 1   
    25    11    13 1   
@<TRIPOS>SUBSTRUCTURE
     1 3FB         1 TEMP              0 ****  ****    0 ROOT
