@<TRIPOS>MOLECULE
3FB
   25    25     1     0     0
SMALL
bcc


@<TRIPOS>ATOM
      1 N            0.8260     1.2490     0.4320 n8         1 3FB      -0.848800
      2 CA           0.9040    -0.0760    -0.1650 c3         1 3FB       0.177500
      3 CB          -0.2130    -0.3690    -1.1870 c3         1 3FB      -0.089100
      4 CG          -1.5850    -0.2280    -0.5940 ca         1 3FB      -0.057300
      5 CD1         -2.3180     0.9480    -0.7440 ca         1 3FB      -0.131500
      6 CE1         -3.5660     1.0940    -0.1500 ca         1 3FB      -0.132000
      7 CH          -4.1000     0.0630     0.6120 ca         1 3FB      -0.148000
      8 CE2         -3.3780    -1.1140     0.7710 ca         1 3FB      -0.132000
      9 CD2         -2.1340    -1.2550     0.1740 ca         1 3FB      -0.131500
     10 CCC          2.2740    -0.2570    -0.8050 c3         1 3FB      -0.197400
     11 C            3.4300    -0.1810     0.2060 c          1 3FB       0.942600
     12 O            3.3250    -0.8980     1.2230 o          1 3FB      -0.845300
     13 OXT          4.3930     0.5610    -0.0750 o          1 3FB      -0.845300
     14 H            0.8600     1.9500    -0.3010 hn         1 3FB       0.314300
     15 HN2         -0.0710     1.3720     0.8860 hn         1 3FB       0.314300
     16 HA           0.8150    -0.8040     0.6470 h1         1 3FB       0.079700
     17 HB1         -0.1050     0.3150    -2.0350 hc         1 3FB       0.042700
     18 HB2         -0.0790    -1.3820    -1.5750 hc         1 3FB       0.042700
     19 HD1         -1.9110     1.7560    -1.3410 ha         1 3FB       0.130500
     20 HE1         -4.1200     2.0150    -0.2820 ha         1 3FB       0.118500
     21 HH          -5.0720     0.1750     1.0750 ha         1 3FB       0.116000
     22 HE2         -3.7880    -1.9240     1.3620 ha         1 3FB       0.118500
     23 HD2         -1.5790    -2.1780     0.3030 ha         1 3FB       0.130500
     24 HC1          2.3050    -1.2380    -1.2940 hc         1 3FB       0.014200
     25 HC2          2.4060     0.4860    -1.5990 hc         1 3FB       0.014200
@<TRIPOS>BOND
     1     1     2 1   
     2     1    14 1   
     3     1    15 1   
     4     2     3 1   
     5     2    10 1   
     6     2    16 1   
     7     3     4 1   
     8     3    17 1   
     9     3    18 1   
    10     4     5 ar  
    11     4     9 ar  
    12     5     6 ar  
    13     5    19 1   
    14     6     7 ar  
    15     6    20 1   
    16     7     8 ar  
    17     7    21 1   
    18     8     9 ar  
    19     8    22 1   
    20     9    23 1   
    21    10    11 1   
    22    10    24 1   
    23    10    25 1   
    24    11    12 1   
    25    11    13 1   
@<TRIPOS>SUBSTRUCTURE
     1 3FB         1 TEMP              0 ****  ****    0 ROOT
