@<TRIPOS>MOLECULE
3FC
   73    75     1     0     0
SMALL
bcc


@<TRIPOS>ATOM
      1 C1           1.7070     0.6790     3.8880 c3         1 3FC      -0.092100
      2 C2           0.8070     1.2780     2.8160 c3         1 3FC      -0.074400
      3 C3          -0.0140     0.2170     2.0960 c3         1 3FC      -0.073400
      4 C4          -0.9060     0.8000     1.0090 c3         1 3FC      -0.084400
      5 C5          -1.7560    -0.2740     0.3030 c3         1 3FC       0.042700
      6 N6          -0.9630    -1.2720    -0.3630 ns         1 3FC      -0.567900
      7 C7          -0.7580    -2.4990     0.1540 c          1 3FC       0.763100
      8 O8          -1.1370    -2.8690     1.2440 o          1 3FC      -0.578000
      9 O9          -0.0680    -3.2530    -0.7110 os         1 3FC      -0.443900
     10 C10          0.4430    -4.5220    -0.2930 c3         1 3FC       0.178100
     11 C11          1.9560    -4.4760    -0.5370 c3         1 3FC      -0.113700
     12 C12          2.6030    -3.3600     0.1880 cc         1 3FC       0.468700
     13 N13          3.2750    -3.3880     1.2860 nd         1 3FC      -0.352000
     14 N14          3.6520    -2.1020     1.5570 nd         1 3FC      -0.348000
     15 C15          3.1870    -1.3720     0.6030 cc         1 3FC       0.509900
     16 O16          2.5150    -2.1080    -0.2940 os         1 3FC      -0.359800
     17 C17          3.2920     0.0670     0.4270 ca         1 3FC      -0.104500
     18 C18          4.1430     0.7940     1.2580 ca         1 3FC      -0.095000
     19 C19          4.2360     2.1660     1.1250 ca         1 3FC      -0.087500
     20 C20          3.4790     2.8240     0.1600 ca         1 3FC      -0.180300
     21 C21          2.6360     2.1030    -0.6740 ca         1 3FC      -0.087500
     22 C22          2.5420     0.7270    -0.5410 ca         1 3FC      -0.095000
     23 C23          3.6240     4.3060     0.0050 c3         1 3FC       0.720200
     24 F24          4.7440     4.6190    -0.6640 f          1 3FC      -0.232300
     25 F25          2.6050     4.8540    -0.6610 f          1 3FC      -0.232300
     26 F26          3.6990     4.9250     1.1900 f          1 3FC      -0.232300
     27 C27         -0.2830    -5.6590    -1.0350 c3         1 3FC      -0.053000
     28 C28         -0.0840    -5.5790    -2.5500 c3         1 3FC      -0.088100
     29 C29          0.2470    -6.9990    -0.5150 c3         1 3FC      -0.088100
     30 C30         -1.7820    -5.5810    -0.7220 c3         1 3FC      -0.088100
     31 O34         -4.1780     1.0880     1.0260 o          1 3FC      -0.547100
     32 N35         -4.5050     1.9040    -1.0610 ns         1 3FC      -0.407500
     33 N36         -5.6090     2.6130    -0.7240 n          1 3FC      -0.359400
     34 C37         -5.5270     3.9130    -0.0840 c5         1 3FC       0.051000
     35 C38         -7.0080     4.1370     0.1990 c5         1 3FC       0.126400
     36 O39         -7.5770     2.8170     0.2230 os         1 3FC      -0.377900
     37 C40         -6.7570     1.9520    -0.3700 c          1 3FC       0.835600
     38 O41         -7.0220     0.7960    -0.5600 o          1 3FC      -0.569500
     39 C31         -2.6570     0.3980    -0.7060 c          1 3FC       0.495100
     40 O32         -2.4670     0.3670    -1.8940 o          1 3FC      -0.497100
     41 H11          2.3000     1.4470     4.3860 hc         1 3FC       0.036033
     42 H12          1.1230     0.1620     4.6520 hc         1 3FC       0.036033
     43 H13          2.4020    -0.0460     3.4600 hc         1 3FC       0.036033
     44 H21A         0.1370     2.0150     3.2680 hc         1 3FC       0.034200
     45 H22A         1.4160     1.8230     2.0890 hc         1 3FC       0.034200
     46 H31          0.6660    -0.5160     1.6570 hc         1 3FC       0.051700
     47 H32         -0.6260    -0.3280     2.8210 hc         1 3FC       0.051700
     48 H41         -1.5690     1.5480     1.4520 hc         1 3FC       0.049700
     49 H42         -0.2940     1.3230     0.2670 hc         1 3FC       0.049700
     50 H5          -2.3790    -0.7660     1.0520 h1         1 3FC       0.124700
     51 HN6         -0.6060    -1.0700    -1.2850 hn         1 3FC       0.338500
     52 H10          0.2680    -4.6520     0.7780 h1         1 3FC       0.086700
     53 H111         2.4090    -5.4000    -0.1820 hc         1 3FC       0.088200
     54 H112         2.1790    -4.3870    -1.6020 hc         1 3FC       0.088200
     55 H18          4.7320     0.2880     2.0110 ha         1 3FC       0.158500
     56 H19          4.9010     2.7120     1.7800 ha         1 3FC       0.153500
     57 H21          2.0420     2.5950    -1.4320 ha         1 3FC       0.153500
     58 H22          1.8770     0.1820    -1.1960 ha         1 3FC       0.158500
     59 H281         0.9550    -5.7380    -2.8430 hc         1 3FC       0.040700
     60 H282        -0.6740    -6.3560    -3.0380 hc         1 3FC       0.040700
     61 H283        -0.4070    -4.6190    -2.9540 hc         1 3FC       0.040700
     62 H291         0.1370    -7.0790     0.5680 hc         1 3FC       0.040700
     63 H292        -0.3140    -7.8190    -0.9670 hc         1 3FC       0.040700
     64 H293         1.2970    -7.1570    -0.7600 hc         1 3FC       0.040700
     65 H301        -2.2470    -4.6870    -1.1410 hc         1 3FC       0.040700
     66 H302        -2.2920    -6.4440    -1.1530 hc         1 3FC       0.040700
     67 H303        -1.9690    -5.5890     0.3530 hc         1 3FC       0.040700
     68 H35         -4.2210     1.9150    -2.0300 hn         1 3FC       0.373500
     69 H371        -4.9220     3.8770     0.8240 h1         1 3FC       0.070200
     70 H372        -5.1190     4.6660    -0.7550 h1         1 3FC       0.070200
     71 H381        -7.1960     4.6150     1.1570 h1         1 3FC       0.074200
     72 H382        -7.4910     4.7090    -0.5930 h1         1 3FC       0.074200
     73 C33         -3.8570     1.1660    -0.1390 c          1 3FC       0.562100
@<TRIPOS>BOND
     1     1     2 1   
     2     1    41 1   
     3     1    42 1   
     4     1    43 1   
     5     2     3 1   
     6     2    44 1   
     7     2    45 1   
     8     3     4 1   
     9     3    46 1   
    10     3    47 1   
    11     4     5 1   
    12     4    48 1   
    13     4    49 1   
    14     5     6 1   
    15     5    39 1   
    16     5    50 1   
    17     6     7 1   
    18     6    51 1   
    19     7     8 2   
    20     7     9 1   
    21     9    10 1   
    22    10    11 1   
    23    10    27 1   
    24    10    52 1   
    25    11    12 1   
    26    11    53 1   
    27    11    54 1   
    28    12    13 2   
    29    12    16 1   
    30    13    14 1   
    31    14    15 2   
    32    15    16 1   
    33    15    17 1   
    34    17    18 ar  
    35    17    22 ar  
    36    18    19 ar  
    37    18    55 1   
    38    19    20 ar  
    39    19    56 1   
    40    20    21 ar  
    41    20    23 1   
    42    21    22 ar  
    43    21    57 1   
    44    22    58 1   
    45    23    24 1   
    46    23    25 1   
    47    23    26 1   
    48    27    28 1   
    49    27    29 1   
    50    27    30 1   
    51    28    59 1   
    52    28    60 1   
    53    28    61 1   
    54    29    62 1   
    55    29    63 1   
    56    29    64 1   
    57    30    65 1   
    58    30    66 1   
    59    30    67 1   
    60    31    73 2   
    61    32    33 1   
    62    32    68 1   
    63    32    73 1   
    64    33    34 1   
    65    33    37 1   
    66    34    35 1   
    67    34    69 1   
    68    34    70 1   
    69    35    36 1   
    70    35    71 1   
    71    35    72 1   
    72    36    37 1   
    73    37    38 2   
    74    39    40 2   
    75    39    73 1   
@<TRIPOS>SUBSTRUCTURE
     1 3FC         1 TEMP              0 ****  ****    0 ROOT
