@<TRIPOS>MOLECULE
3FC
   73    75     1     0     0
SMALL
No Charge or Current Charge


@<TRIPOS>ATOM
      1 C1           1.7380     0.7440     3.8840 c3         1 3FC      -0.092100
      2 C2           0.8740     1.3210     2.7470 c3         1 3FC      -0.074400
      3 C3           0.0300     0.2480     2.0270 c3         1 3FC      -0.073400
      4 C4          -0.8230     0.8230     0.8720 c3         1 3FC      -0.084400
      5 C5          -1.7860    -0.2000     0.2070 c3         1 3FC       0.042700
      6 N6          -1.0580    -1.3190    -0.4350 ns         1 3FC      -0.500900
      7 C7          -0.7430    -2.5030     0.1650 c          1 3FC       0.647100
      8 O8          -1.0220    -2.8060     1.3130 o          1 3FC      -0.529000
      9 O9          -0.0390    -3.2580    -0.7230 os         1 3FC      -0.467100
     10 C10          0.4950    -4.5320    -0.3050 c3         1 3FC       0.201300
     11 C11          2.0070    -4.4800    -0.6350 c3         1 3FC      -0.113700
     12 C12          2.7150    -3.3930     0.1170 cc         1 3FC       0.424300
     13 N13          3.3920    -3.5130     1.2460 nd         1 3FC      -0.352000
     14 N14          3.8230    -2.2490     1.5630 nd         1 3FC      -0.348000
     15 C15          3.3710    -1.4550     0.6030 cc         1 3FC       0.465500
     16 O16          2.6730    -2.1220    -0.3490 os         1 3FC      -0.271000
     17 C17          3.5270     0.0000     0.4940 ca         1 3FC      -0.104500
     18 C18          4.3370     0.7060     1.4080 ca         1 3FC      -0.077000
     19 C19          4.4590     2.1040     1.3280 ca         1 3FC      -0.069500
     20 C20          3.7640     2.8300     0.3370 ca         1 3FC      -0.180300
     21 C21          2.9610     2.1240    -0.5830 ca         1 3FC      -0.069500
     22 C22          2.8400     0.7270    -0.5020 ca         1 3FC      -0.077000
     23 C23          3.8940     4.3550     0.2500 c3         1 3FC       0.356300
     24 F24          4.9080     4.7150    -0.5680 f          1 3FC      -0.111000
     25 F25          2.7720     4.9390    -0.2310 f          1 3FC      -0.111000
     26 F26          4.1370     4.9210     1.4540 f          1 3FC      -0.111000
     27 C27         -0.3340    -5.6830    -0.9940 c3         1 3FC      -0.053000
     28 C28         -0.2750    -5.5900    -2.5460 c3         1 3FC      -0.088100
     29 C29          0.2050    -7.0740    -0.5550 c3         1 3FC      -0.088100
     30 C30         -1.8220    -5.5930    -0.5510 c3         1 3FC      -0.088100
     31 O34         -4.2410     1.3050     0.9660 o          1 3FC      -0.547100
     32 N35         -4.6830     2.0160    -1.1880 ns         1 3FC      -0.340500
     33 N36         -5.9670     2.5760    -0.7960 n          1 3FC      -0.292400
     34 C37         -5.9340     3.9740    -0.3900 c5         1 3FC       0.051000
     35 C38         -7.3550     4.0500     0.2550 c5         1 3FC       0.149600
     36 O39         -7.8150     2.6760     0.4390 os         1 3FC      -0.401100
     37 C40         -6.9960     1.8200    -0.2360 c          1 3FC       0.693100
     38 O41         -7.1380     0.6090    -0.3150 o          1 3FC      -0.494000
     39 C31         -2.7220     0.4910    -0.8230 c          1 3FC       0.495100
     40 O32         -2.5330     0.4110    -2.0390 o          1 3FC      -0.497100
     41 H11          2.3460     1.5340     4.3410 hc         1 3FC       0.036033
     42 H12          1.1070     0.3010     4.6640 hc         1 3FC       0.036033
     43 H13          2.4140    -0.0320     3.5050 hc         1 3FC       0.036033
     44 H21A         0.2110     2.0910     3.1600 hc         1 3FC       0.034200
     45 H22A         1.5250     1.8200     2.0200 hc         1 3FC       0.034200
     46 H31          0.7000    -0.5260     1.6350 hc         1 3FC       0.051700
     47 H32         -0.6300    -0.2380     2.7570 hc         1 3FC       0.051700
     48 H41         -1.4140     1.6600     1.2640 hc         1 3FC       0.049700
     49 H42         -0.1570     1.2430     0.1070 hc         1 3FC       0.049700
     50 H5          -2.4420    -0.6130     0.9860 h1         1 3FC       0.124700
     51 HN6         -0.7670    -1.2270    -1.4010 hn         1 3FC       0.338500
     52 H10          0.4150    -4.6660     0.7840 h1         1 3FC       0.086700
     53 H111         2.4790    -5.4370    -0.3900 hc         1 3FC       0.088200
     54 H112         2.1510    -4.3210    -1.7090 hc         1 3FC       0.088200
     55 H18          4.8760     0.1740     2.1890 ha         1 3FC       0.140500
     56 H19          5.0950     2.6190     2.0450 ha         1 3FC       0.135500
     57 H21          2.4210     2.6560    -1.3640 ha         1 3FC       0.135500
     58 H22          2.2010     0.2140    -1.2190 ha         1 3FC       0.140500
     59 H281         0.7460    -5.7300    -2.9190 hc         1 3FC       0.040700
     60 H282        -0.9000    -6.3660    -3.0050 hc         1 3FC       0.040700
     61 H283        -0.6380    -4.6180    -2.9010 hc         1 3FC       0.040700
     62 H291         0.2320    -7.1580     0.5380 hc         1 3FC       0.040700
     63 H292        -0.4340    -7.8790    -0.9380 hc         1 3FC       0.040700
     64 H293         1.2160    -7.2550    -0.9370 hc         1 3FC       0.040700
     65 H301        -2.2900    -4.6650    -0.9030 hc         1 3FC       0.040700
     66 H302        -2.4060    -6.4280    -0.9590 hc         1 3FC       0.040700
     67 H303        -1.9100    -5.6250     0.5420 hc         1 3FC       0.040700
     68 H35         -4.4560     1.9160    -2.1770 hn         1 3FC       0.373500
     69 H371        -5.1400     4.1680     0.3440 h1         1 3FC       0.070200
     70 H372        -5.8230     4.6570    -1.2420 h1         1 3FC       0.070200
     71 H381        -7.3530     4.5760     1.2190 h1         1 3FC       0.074200
     72 H382        -8.0580     4.5620    -0.4150 h1         1 3FC       0.074200
     73 C33         -3.9600     1.2990    -0.2310 c          1 3FC       0.495100
@<TRIPOS>BOND
     1     1     2 1   
     2     1    41 1   
     3     1    42 1   
     4     1    43 1   
     5     2     3 1   
     6     2    44 1   
     7     2    45 1   
     8     3     4 1   
     9     3    46 1   
    10     3    47 1   
    11     4     5 1   
    12     4    48 1   
    13     4    49 1   
    14     5     6 1   
    15     5    39 1   
    16     5    50 1   
    17     6     7 1   
    18     6    51 1   
    19     7     8 2   
    20     7     9 1   
    21     9    10 1   
    22    10    11 1   
    23    10    27 1   
    24    10    52 1   
    25    11    12 1   
    26    11    53 1   
    27    11    54 1   
    28    12    13 2   
    29    12    16 1   
    30    13    14 1   
    31    14    15 2   
    32    15    16 1   
    33    15    17 1   
    34    17    18 ar  
    35    17    22 ar  
    36    18    19 ar  
    37    18    55 1   
    38    19    20 ar  
    39    19    56 1   
    40    20    21 ar  
    41    20    23 1   
    42    21    22 ar  
    43    21    57 1   
    44    22    58 1   
    45    23    24 1   
    46    23    25 1   
    47    23    26 1   
    48    27    28 1   
    49    27    29 1   
    50    27    30 1   
    51    28    59 1   
    52    28    60 1   
    53    28    61 1   
    54    29    62 1   
    55    29    63 1   
    56    29    64 1   
    57    30    65 1   
    58    30    66 1   
    59    30    67 1   
    60    31    73 2   
    61    32    33 1   
    62    32    68 1   
    63    32    73 1   
    64    33    34 1   
    65    33    37 1   
    66    34    35 1   
    67    34    69 1   
    68    34    70 1   
    69    35    36 1   
    70    35    71 1   
    71    35    72 1   
    72    36    37 1   
    73    37    38 2   
    74    39    40 2   
    75    39    73 1   
@<TRIPOS>SUBSTRUCTURE
     1 3FC         1 TEMP              0 ****  ****    0 ROOT
