@<TRIPOS>MOLECULE
3FD
   61    65     1     0     0
SMALL
No Charge or Current Charge


@<TRIPOS>ATOM
      1 C18         -2.2900    -2.2550     1.6760 ca         1 3FD      -0.093000
      2 C17         -3.1750    -3.3000     1.3570 ca         1 3FD      -0.098000
      3 C16         -4.5000    -3.0150     0.9860 ca         1 3FD       0.122000
      4 Cl20        -5.5850    -4.3490     0.5910 cl         1 3FD      -0.169000
      5 C15         -4.9410    -1.6770     0.9340 ca         1 3FD       0.114000
      6 C14         -4.0550    -0.6340     1.2530 ca         1 3FD      -0.078000
      7 C13         -2.7260    -0.9160     1.6280 ca         1 3FD      -0.097300
      8 C12         -1.7680     0.2170     1.9640 c3         1 3FD       0.257100
      9 N11         -1.1210     0.6850     0.7370 nu         1 3FD      -0.864400
     10 C6           0.0140     1.4280     0.6870 cc         1 3FD       0.632700
     11 N7           0.5830     1.9590     1.7680 nd         1 3FD      -0.614100
     12 C8           1.7380     2.5420     1.2390 ca         1 3FD      -0.060600
     13 C4           2.7720     3.2330     1.9070 ca         1 3FD       0.424900
     14 N10          2.7610     3.4590     3.2500 nv         1 3FD      -1.047900
     15 N1           3.8430     3.6930     1.2410 nb         1 3FD      -0.287000
     16 C2           3.8590     3.4570    -0.0910 ca         1 3FD       0.168900
     17 N3           2.9090     2.8160    -0.8120 nb         1 3FD      -0.244000
     18 C9           1.8400     2.3660    -0.1230 ca         1 3FD       0.137500
     19 N5           0.7030     1.6840    -0.4910 na         1 3FD      -0.315300
     20 C21          0.1320     1.4520    -1.8280 c5         1 3FD       0.312300
     21 O22          0.2240     0.0440    -2.1510 os         1 3FD      -0.446000
     22 C24          0.6940     2.2390    -3.0810 c5         1 3FD       0.082300
     23 O26         -0.1190     3.3650    -3.4830 oh         1 3FD      -0.704000
     24 C25          0.6820     1.1410    -4.1840 c5         1 3FD       0.113300
     25 O27         -0.6160     1.0780    -4.7850 oh         1 3FD      -0.705000
     26 C23          1.0390    -0.1200    -3.3380 c5         1 3FD       0.157300
     27 C28          2.5360    -0.2270    -2.9360 c3         1 3FD       0.128600
     28 O29          2.8070    -1.5990    -2.5830 os         1 3FD      -0.444000
     29 C30          3.9550    -1.7980    -1.7370 c3         1 3FD       0.206900
     30 C31          3.6230    -1.3230    -0.3220 ca         1 3FD      -0.098300
     31 C32          4.4800    -0.4330     0.3550 ca         1 3FD      -0.094000
     32 C33          4.1770    -0.0130     1.6620 ca         1 3FD      -0.079000
     33 C34          3.0120    -0.4780     2.3040 ca         1 3FD      -0.016000
     34 C37          2.7060    -0.0590     3.6450 cg         1 3FD       0.337000
     35 N38          2.4650     0.2740     4.7390 n1         1 3FD      -0.471000
     36 C35          2.1480    -1.3560     1.6250 ca         1 3FD      -0.079000
     37 C36          2.4530    -1.7770     0.3200 ca         1 3FD      -0.094000
     38 Cl21        -6.5970    -1.2810     0.4690 cl         1 3FD      -0.170000
     39 H18         -1.2650    -2.4870     1.9580 ha         1 3FD       0.123000
     40 H17         -2.8330    -4.3320     1.3950 ha         1 3FD       0.134000
     41 H14         -4.4010     0.3960     1.2060 ha         1 3FD       0.144000
     42 H12         -2.3190     1.0390     2.4400 h1         1 3FD       0.065200
     43 H12A        -1.0170    -0.1400     2.6830 h1         1 3FD       0.065200
     44 HN11        -1.2530     0.1150    -0.0940 hn         1 3FD       0.483000
     45 HN10         2.1000     2.9120     3.7960 hn         1 3FD       0.498500
     46 HN1A         3.6340     3.7070     3.7050 hn         1 3FD       0.498500
     47 H2           4.7240     3.8230    -0.6410 h5         1 3FD       0.042100
     48 H21         -0.9320     1.7070    -1.7270 h2         1 3FD       0.102700
     49 H24          1.7320     2.5550    -2.9310 h1         1 3FD       0.097700
     50 HO26         0.1080     4.1260    -2.8950 ho         1 3FD       0.519000
     51 H25          1.4460     1.3390    -4.9500 h1         1 3FD       0.058700
     52 HO27        -0.9710     1.9910    -4.6250 ho         1 3FD       0.522000
     53 H23          0.7510    -1.0410    -3.8620 h1         1 3FD       0.106700
     54 H28          3.1690     0.0750    -3.7810 h1         1 3FD       0.051200
     55 H28A         2.7430     0.4500    -2.0990 h1         1 3FD       0.051200
     56 H30          4.2110    -2.8640    -1.6970 h1         1 3FD       0.055200
     57 H30A         4.8290    -1.2610    -2.1290 h1         1 3FD       0.055200
     58 H32          5.3840    -0.0680    -0.1280 ha         1 3FD       0.127500
     59 H33          4.8490     0.6710     2.1760 ha         1 3FD       0.123000
     60 H35          1.2420    -1.7160     2.1070 ha         1 3FD       0.123000
     61 H36          1.7790    -2.4580    -0.1950 ha         1 3FD       0.127500
@<TRIPOS>BOND
     1     1     2 ar  
     2     1     7 ar  
     3     1    39 1   
     4     2     3 ar  
     5     2    40 1   
     6     3     4 1   
     7     3     5 ar  
     8     5     6 ar  
     9     5    38 1   
    10     6     7 ar  
    11     6    41 1   
    12     7     8 1   
    13     8     9 1   
    14     8    42 1   
    15     8    43 1   
    16     9    10 1   
    17     9    44 1   
    18    10    11 2   
    19    10    19 1   
    20    11    12 1   
    21    12    13 ar  
    22    12    18 ar  
    23    13    14 1   
    24    13    15 ar  
    25    14    45 1   
    26    14    46 1   
    27    15    16 ar  
    28    16    17 ar  
    29    16    47 1   
    30    17    18 ar  
    31    18    19 1   
    32    19    20 1   
    33    20    21 1   
    34    20    22 1   
    35    20    48 1   
    36    21    26 1   
    37    22    23 1   
    38    22    24 1   
    39    22    49 1   
    40    23    50 1   
    41    24    25 1   
    42    24    26 1   
    43    24    51 1   
    44    25    52 1   
    45    26    27 1   
    46    26    53 1   
    47    27    28 1   
    48    27    54 1   
    49    27    55 1   
    50    28    29 1   
    51    29    30 1   
    52    29    56 1   
    53    29    57 1   
    54    30    31 ar  
    55    30    37 ar  
    56    31    32 ar  
    57    31    58 1   
    58    32    33 ar  
    59    32    59 1   
    60    33    34 1   
    61    33    36 ar  
    62    34    35 3   
    63    36    37 ar  
    64    36    60 1   
    65    37    61 1   
@<TRIPOS>SUBSTRUCTURE
     1 3FD         1 TEMP              0 ****  ****    0 ROOT
