@<TRIPOS>MOLECULE
3FD
   61    65     1     0     0
SMALL
bcc


@<TRIPOS>ATOM
      1 C18         -3.1430    -2.2340     2.3720 ca         1 3FD      -0.111000
      2 C17         -4.3230    -2.9370     2.1830 ca         1 3FD      -0.116000
      3 C16         -5.2930    -2.4440     1.3250 ca         1 3FD       0.030400
      4 CL20        -6.7510    -3.3280     1.0870 cl         1 3FD      -0.077400
      5 C15         -5.0750    -1.2410     0.6610 ca         1 3FD       0.022400
      6 C14         -3.8970    -0.5390     0.8580 ca         1 3FD      -0.096000
      7 C13         -2.9200    -1.0300     1.7170 ca         1 3FD      -0.097300
      8 C12         -1.6510    -0.2570     1.9470 c3         1 3FD       0.257100
      9 N11         -1.0720     0.1530     0.6820 nu         1 3FD      -0.809200
     10 C6           0.0240     0.9580     0.7210 cc         1 3FD       0.632700
     11 N7           0.5370     1.4730     1.8010 nd         1 3FD      -0.614100
     12 C8           1.6130     2.1940     1.3490 ca         1 3FD      -0.191200
     13 C4           2.5920     2.9330     2.0220 ca         1 3FD       0.753200
     14 N10          2.5660     3.1230     3.3530 nv         1 3FD      -0.937500
     15 N1           3.5780     3.4850     1.3060 nb         1 3FD      -0.813000
     16 C2           3.5930     3.3020    -0.0080 ca         1 3FD       0.694900
     17 N3           2.7270     2.6260    -0.7470 nb         1 3FD      -0.770000
     18 C9           1.7510     2.0900    -0.0250 ca         1 3FD       0.465800
     19 N5           0.6810     1.3240    -0.4380 na         1 3FD      -0.286000
     20 C21          0.2350     0.9760    -1.7680 c5         1 3FD       0.259800
     21 O22          0.7950    -0.2370    -2.1930 os         1 3FD      -0.399600
     22 C24          0.5600     2.0210    -2.8440 c5         1 3FD       0.059100
     23 O26         -0.4960     2.9360    -2.9350 oh         1 3FD      -0.581800
     24 C25          0.7480     1.1380    -4.0800 c5         1 3FD       0.090100
     25 O27         -0.4880     0.7480    -4.6180 oh         1 3FD      -0.582800
     26 C23          1.4200    -0.0810    -3.4660 c5         1 3FD       0.134100
     27 C28          2.9230     0.0770    -3.3200 c3         1 3FD       0.105400
     28 O29          3.4720    -1.1360    -2.8500 os         1 3FD      -0.397600
     29 C30          4.5070    -0.9930    -1.9150 c3         1 3FD       0.183700
     30 C31          4.0180    -0.7730    -0.5040 ca         1 3FD      -0.098300
     31 C32          4.7570     0.0100     0.3770 ca         1 3FD      -0.112000
     32 C33          4.3660     0.1560     1.6960 ca         1 3FD      -0.097000
     33 C34          3.2110    -0.4820     2.1420 ca         1 3FD      -0.016000
     34 C37          2.7840    -0.3240     3.4930 cg         1 3FD       0.247800
     35 N38          2.4430    -0.1980     4.5870 n1         1 3FD      -0.381800
     36 C35          2.4550    -1.2590     1.2650 ca         1 3FD      -0.097000
     37 C36          2.8610    -1.4000    -0.0480 ca         1 3FD      -0.112000
     38 CL21        -6.2630    -0.6080    -0.4150 cl         1 3FD      -0.078400
     39 H18         -2.3900    -2.6380     3.0370 ha         1 3FD       0.141000
     40 H17         -4.4860    -3.8750     2.6960 ha         1 3FD       0.152000
     41 H14         -3.7420     0.3950     0.3350 ha         1 3FD       0.162000
     42 H12         -1.8670     0.6390     2.5330 h1         1 3FD       0.065200
     43 H12A        -0.9530    -0.8580     2.5410 h1         1 3FD       0.065200
     44 HN11        -1.0490    -0.5790    -0.0130 hn         1 3FD       0.427800
     45 HN10         1.9650     2.5480     3.9180 hn         1 3FD       0.443300
     46 HN1A         3.3910     3.4860     3.8020 hn         1 3FD       0.443300
     47 H2           4.4180     3.7620    -0.5410 h5         1 3FD       0.042100
     48 H21         -0.8530     0.8690    -1.6980 h2         1 3FD       0.102700
     49 H24          1.5060     2.5180    -2.6230 h1         1 3FD       0.097700
     50 HO26        -0.1690     3.7450    -3.3410 ho         1 3FD       0.420000
     51 H25          1.3820     1.6260    -4.8320 h1         1 3FD       0.058700
     52 HO27        -1.0550     1.5280    -4.6410 ho         1 3FD       0.423000
     53 H23          1.2120    -0.9780    -4.0580 h1         1 3FD       0.106700
     54 H28          3.3540     0.3250    -4.2990 h1         1 3FD       0.051200
     55 H28A         3.1550     0.9070    -2.6430 h1         1 3FD       0.051200
     56 H30          5.0830    -1.9220    -1.9420 h1         1 3FD       0.055200
     57 H30A         5.2010    -0.1900    -2.1950 h1         1 3FD       0.055200
     58 H32          5.6510     0.5150     0.0320 ha         1 3FD       0.145500
     59 H33          4.9440     0.7720     2.3720 ha         1 3FD       0.141000
     60 H35          1.5570    -1.7520     1.6140 ha         1 3FD       0.141000
     61 H36          2.2710    -2.0050    -0.7200 ha         1 3FD       0.145500
@<TRIPOS>BOND
     1     1     2 ar  
     2     1     7 ar  
     3     1    39 1   
     4     2     3 ar  
     5     2    40 1   
     6     3     4 1   
     7     3     5 ar  
     8     5     6 ar  
     9     5    38 1   
    10     6     7 ar  
    11     6    41 1   
    12     7     8 1   
    13     8     9 1   
    14     8    42 1   
    15     8    43 1   
    16     9    10 1   
    17     9    44 1   
    18    10    11 2   
    19    10    19 1   
    20    11    12 1   
    21    12    13 ar  
    22    12    18 ar  
    23    13    14 1   
    24    13    15 ar  
    25    14    45 1   
    26    14    46 1   
    27    15    16 ar  
    28    16    17 ar  
    29    16    47 1   
    30    17    18 ar  
    31    18    19 1   
    32    19    20 1   
    33    20    21 1   
    34    20    22 1   
    35    20    48 1   
    36    21    26 1   
    37    22    23 1   
    38    22    24 1   
    39    22    49 1   
    40    23    50 1   
    41    24    25 1   
    42    24    26 1   
    43    24    51 1   
    44    25    52 1   
    45    26    27 1   
    46    26    53 1   
    47    27    28 1   
    48    27    54 1   
    49    27    55 1   
    50    28    29 1   
    51    29    30 1   
    52    29    56 1   
    53    29    57 1   
    54    30    31 ar  
    55    30    37 ar  
    56    31    32 ar  
    57    31    58 1   
    58    32    33 ar  
    59    32    59 1   
    60    33    34 1   
    61    33    36 ar  
    62    34    35 3   
    63    36    37 ar  
    64    36    60 1   
    65    37    61 1   
@<TRIPOS>SUBSTRUCTURE
     1 3FD         1 TEMP              0 ****  ****    0 ROOT
