@<TRIPOS>MOLECULE
3FE
   38    41     1     0     0
SMALL
bcc


@<TRIPOS>ATOM
      1 N3          -3.5090     2.3090     0.0920 nb         1 3FE      -0.736000
      2 C4           2.3740     1.1050    -0.4690 ca         1 3FE      -0.094000
      3 N2          -3.4070    -0.0500     0.3340 nb         1 3FE      -0.805000
      4 C7          -0.0090     1.5790     0.0380 cc         1 3FE      -0.065400
      5 C6           1.3130    -0.1040     1.3080 ca         1 3FE      -0.088000
      6 C9          -2.1820     2.2720    -0.0070 ca         1 3FE       0.460800
      7 C13         -2.2930    -2.4880     0.4030 c6         1 3FE       0.163300
      8 C8          -0.0720     2.9370    -0.1210 cd         1 3FE      -0.101100
      9 N5           5.6640     0.9520    -1.5990 n1         1 3FE      -0.362800
     10 C16         -0.6100    -1.5690    -1.0580 c6         1 3FE       0.163300
     11 C1           2.4990    -0.7680     1.5790 ca         1 3FE      -0.137000
     12 C2           3.6380    -0.5030     0.8370 ca         1 3FE      -0.092000
     13 C3           3.5660     0.4410    -0.1870 ca         1 3FE      -0.021000
     14 C5           1.2320     0.8410     0.2810 ca         1 3FE      -0.018800
     15 N1          -1.3730     3.3460    -0.1610 na         1 3FE      -0.260100
     16 C10         -1.3730     1.1240     0.0810 ca         1 3FE      -0.337400
     17 C11         -2.0890    -0.0900     0.1650 ca         1 3FE       0.731200
     18 C12         -4.0370     1.1230     0.3070 ca         1 3FE       0.695900
     19 N4          -1.4860    -1.3190     0.0850 nh         1 3FE      -0.752300
     20 C14         -1.3790    -3.6820     0.6070 c6         1 3FE       0.122900
     21 O1          -0.5780    -3.9310    -0.5260 os         1 3FE      -0.398600
     22 C15          0.2250    -2.8120    -0.8220 c6         1 3FE       0.122900
     23 H1           2.3380     1.8190    -1.2820 ha         1 3FE       0.143000
     24 H2           0.4360    -0.3190     1.9050 ha         1 3FE       0.151000
     25 H3          -2.8530    -2.3120     1.3200 h1         1 3FE       0.060200
     26 H4          -3.0190    -2.7010    -0.3920 h1         1 3FE       0.060200
     27 H5           0.7310     3.6550    -0.1610 h4         1 3FE       0.173000
     28 H6          -1.2160    -1.6960    -1.9660 h1         1 3FE       0.060200
     29 H7           0.0570    -0.7280    -1.2320 h1         1 3FE       0.060200
     30 H8           2.5360    -1.4960     2.3780 ha         1 3FE       0.140000
     31 H9           4.5660    -1.0170     1.0440 ha         1 3FE       0.145000
     32 H10         -1.6820     4.3030    -0.2210 hn         1 3FE       0.317700
     33 H11         -5.1110     1.0870     0.4550 h5         1 3FE       0.049100
     34 H12         -0.7500    -3.5110     1.4930 h1         1 3FE       0.053700
     35 H13         -1.9790    -4.5740     0.7880 h1         1 3FE       0.053700
     36 H14          0.7930    -3.0420    -1.7230 h1         1 3FE       0.053700
     37 H15          0.9390    -2.6250    -0.0090 h1         1 3FE       0.053700
     38 C17          4.7280     0.7240    -0.9680 cg         1 3FE       0.232800
@<TRIPOS>BOND
     1     1     6 ar  
     2     1    18 ar  
     3     2    13 ar  
     4     2    14 ar  
     5     2    23 1   
     6     3    17 ar  
     7     3    18 ar  
     8     4     8 2   
     9     4    14 1   
    10     4    16 1   
    11     5    11 ar  
    12     5    14 ar  
    13     5    24 1   
    14     6    15 1   
    15     6    16 ar  
    16     7    19 1   
    17     7    20 1   
    18     7    25 1   
    19     7    26 1   
    20     8    15 1   
    21     8    27 1   
    22     9    38 3   
    23    10    19 1   
    24    10    22 1   
    25    10    28 1   
    26    10    29 1   
    27    11    12 ar  
    28    11    30 1   
    29    12    13 ar  
    30    12    31 1   
    31    13    38 1   
    32    15    32 1   
    33    16    17 ar  
    34    17    19 1   
    35    18    33 1   
    36    20    21 1   
    37    20    34 1   
    38    20    35 1   
    39    21    22 1   
    40    22    36 1   
    41    22    37 1   
@<TRIPOS>SUBSTRUCTURE
     1 3FE         1 TEMP              0 ****  ****    0 ROOT
