@<TRIPOS>MOLECULE
3FE
   38    41     1     0     0
SMALL
No Charge or Current Charge


@<TRIPOS>ATOM
      1 N3          -3.5630     2.3810     0.0310 nb         1 3FE      -0.210000
      2 C4           2.2540     0.9910    -0.4330 ca         1 3FE      -0.076000
      3 N2          -3.4930    -0.0380     0.0500 nb         1 3FE      -0.279000
      4 C7          -0.0970     1.6140     0.0920 cc         1 3FE      -0.065400
      5 C6           1.1140    -0.1190     1.4040 ca         1 3FE      -0.070000
      6 C9          -2.2180     2.4070     0.0330 ca         1 3FE       0.132500
      7 C13         -2.0330    -2.4640     0.6090 c6         1 3FE       0.163300
      8 C8          -0.0330     2.9950     0.0550 cd         1 3FE      -0.151100
      9 N5           5.5320     0.5460    -1.6590 n1         1 3FE      -0.452000
     10 C16         -0.6670    -1.5360    -1.2740 c6         1 3FE       0.163300
     11 C1           2.2670    -0.8790     1.6650 ca         1 3FE      -0.119000
     12 C2           3.4140    -0.7090     0.8720 ca         1 3FE      -0.074000
     13 C3           3.4110     0.2280    -0.1800 ca         1 3FE      -0.021000
     14 C5           1.0980     0.8160     0.3520 ca         1 3FE      -0.018800
     15 N1          -1.3570     3.4970     0.0040 na         1 3FE      -0.310400
     16 C10         -1.4850     1.2430     0.0620 ca         1 3FE      -0.206800
     17 C11         -2.1430    -0.0020     0.0410 ca         1 3FE       0.402900
     18 C12         -4.1340     1.1540     0.0510 ca         1 3FE       0.169900
     19 N4          -1.4670    -1.2380    -0.0420 nh         1 3FE      -0.752300
     20 C14         -0.9620    -3.5850     0.7640 c6         1 3FE       0.146100
     21 O1          -0.3260    -3.8630    -0.5060 os         1 3FE      -0.445000
     22 C15          0.3420    -2.7030    -1.0560 c6         1 3FE       0.146100
     23 H1           2.2470     1.7150    -1.2450 ha         1 3FE       0.125000
     24 H2           0.2280    -0.2540     2.0200 ha         1 3FE       0.133000
     25 H3          -2.4240    -2.2180     1.6080 h1         1 3FE       0.060200
     26 H4          -2.8720    -2.8550     0.0150 h1         1 3FE       0.060200
     27 H5           0.8360     3.6470     0.1110 h4         1 3FE       0.223000
     28 H6          -1.3430    -1.8070    -2.0980 h1         1 3FE       0.060200
     29 H7          -0.1080    -0.6470    -1.6000 h1         1 3FE       0.060200
     30 H8           2.2690    -1.6010     2.4780 ha         1 3FE       0.122000
     31 H9           4.3030    -1.3030     1.0770 ha         1 3FE       0.127000
     32 H10         -1.6370     4.4730    -0.0170 hn         1 3FE       0.368000
     33 H11         -5.2220     1.1230     0.0560 h5         1 3FE       0.049100
     34 H12         -0.1980    -3.2730     1.4900 h1         1 3FE       0.053700
     35 H13         -1.4350    -4.5030     1.1390 h1         1 3FE       0.053700
     36 H14          0.8070    -2.9750    -2.0140 h1         1 3FE       0.053700
     37 H15          1.1400    -2.3860    -0.3710 h1         1 3FE       0.053700
     38 C17          4.5840     0.4060    -0.9920 cg         1 3FE       0.322000
@<TRIPOS>BOND
     1     1     6 ar  
     2     1    18 ar  
     3     2    13 ar  
     4     2    14 ar  
     5     2    23 1   
     6     3    17 ar  
     7     3    18 ar  
     8     4     8 2   
     9     4    14 1   
    10     4    16 1   
    11     5    11 ar  
    12     5    14 ar  
    13     5    24 1   
    14     6    15 1   
    15     6    16 ar  
    16     7    19 1   
    17     7    20 1   
    18     7    25 1   
    19     7    26 1   
    20     8    15 1   
    21     8    27 1   
    22     9    38 3   
    23    10    19 1   
    24    10    22 1   
    25    10    28 1   
    26    10    29 1   
    27    11    12 ar  
    28    11    30 1   
    29    12    13 ar  
    30    12    31 1   
    31    13    38 1   
    32    15    32 1   
    33    16    17 ar  
    34    17    19 1   
    35    18    33 1   
    36    20    21 1   
    37    20    34 1   
    38    20    35 1   
    39    21    22 1   
    40    22    36 1   
    41    22    37 1   
@<TRIPOS>SUBSTRUCTURE
     1 3FE         1 TEMP              0 ****  ****    0 ROOT
