@<TRIPOS>MOLECULE
3FF
   52    55     1     0     0
SMALL
abcg2


@<TRIPOS>ATOM
      1 OAA          0.9600     0.3350    -2.2440 o          1 3FF      -0.534100
      2 OAC          7.0770    -2.7350     0.1570 oh         1 3FF      -0.621000
      3 FAE         -6.8700     1.6520     0.0670 f          1 3FF      -0.167000
      4 CAF         -6.4720    -2.3960    -0.4050 ca         1 3FF      -0.154000
      5 CAG         -2.8350    -0.0440    -0.8280 ca         1 3FF      -0.202000
      6 CAH          4.5100     1.4150     0.9430 ca         1 3FF      -0.182000
      7 CAI          3.4340     2.2650     1.1620 ca         1 3FF      -0.082000
      8 CAJ         -5.4390    -1.6490     0.1380 ca         1 3FF      -0.077000
      9 CAK         -1.5300     0.0730    -1.2400 ca         1 3FF      -0.015000
     10 CAL         -7.8030    -0.3840    -0.6010 ca         1 3FF      -0.186000
     11 CAM         -2.2740     1.2760     1.0940 ca         1 3FF      -0.218000
     12 CAN          3.1330     0.1320    -0.5460 ca         1 3FF      -0.096000
     13 CAO          8.9540    -1.1820     0.2530 c3         1 3FF       0.128600
     14 CAP          1.0480     2.9750     0.8620 c3         1 3FF      -0.026100
     15 CAQ         -0.0680     2.2250     1.5760 c3         1 3FF      -0.037100
     16 CAR          6.6160    -0.3590     0.3380 c3         1 3FF       0.127600
     17 NAS         -4.5140     0.5010     0.8440 nu         1 3FF      -0.994000
     18 OAT          5.3280    -0.5580    -0.2070 os         1 3FF      -0.326100
     19 CAU          0.8140     0.7070    -1.0910 c          1 3FF       0.601300
     20 CAV         -7.6390    -1.7460    -0.7610 ca         1 3FF       0.192000
     21 CAW         -3.2340     0.5590     0.3730 ca         1 3FF       0.369000
     22 CAX         -6.7420     0.3300    -0.0820 ca         1 3FF       0.178000
     23 CAY          4.3580     0.3310     0.0840 ca         1 3FF       0.131100
     24 CAZ          2.1990     2.0670     0.5610 ca         1 3FF      -0.083300
     25 CBA         -0.9530     1.3890     0.6880 ca         1 3FF       0.027700
     26 CBB         -5.5470    -0.2700     0.3000 ca         1 3FF       0.230000
     27 CBC         -0.5480     0.7620    -0.5070 ca         1 3FF      -0.211600
     28 CBD          2.0560     0.9780    -0.3030 ca         1 3FF      -0.112600
     29 CBE          7.5270    -1.4520    -0.1980 c3         1 3FF       0.167300
     30 HOAB        10.6990    -1.9590    -0.0280 ho         1 3FF       0.444000
     31 HOAC         7.1690    -2.8440     1.1100 ho         1 3FF       0.435000
     32 HAF         -6.3750    -3.4650    -0.5320 ha         1 3FF       0.141000
     33 HAG         -3.5380    -0.5940    -1.4390 ha         1 3FF       0.124000
     34 HAH          5.4460     1.6160     1.4460 ha         1 3FF       0.115000
     35 HAI          3.5670     3.1100     1.8270 ha         1 3FF       0.111000
     36 HAJ         -4.5290    -2.1460     0.4450 ha         1 3FF       0.135000
     37 HAK         -1.2490    -0.4030    -2.1690 ha         1 3FF       0.134000
     38 HAL         -8.7220     0.1120    -0.8880 ha         1 3FF       0.153000
     39 HAM         -2.5780     1.7750     2.0080 ha         1 3FF       0.110000
     40 HAN          3.0270    -0.7020    -1.2280 ha         1 3FF       0.146000
     41 HAO          8.9960    -1.2020     1.3530 h1         1 3FF       0.019200
     42 HAOA         9.2320    -0.1650    -0.0540 h1         1 3FF       0.019200
     43 HAP          0.6610     3.4440    -0.0480 hc         1 3FF       0.054200
     44 HAPA         1.3920     3.7890     1.5020 hc         1 3FF       0.054200
     45 HAQ          0.3670     1.5900     2.3550 hc         1 3FF       0.055200
     46 HAQA        -0.7020     2.9420     2.0990 hc         1 3FF       0.055200
     47 HAR          7.0060     0.6250     0.0540 h1         1 3FF       0.034700
     48 HARA         6.5840    -0.3970     1.4350 h1         1 3FF       0.034700
     49 HNAS        -4.7350     1.0740     1.6440 hn         1 3FF       0.505000
     50 HBE          7.4980    -1.4160    -1.2920 h1         1 3FF       0.101700
     51 FAD         -8.6510    -2.4540    -1.2760 f          1 3FF      -0.169000
     52 OAB          9.8020    -2.1470    -0.3170 oh         1 3FF      -0.640000
@<TRIPOS>BOND
     1     1    19 2   
     2     2    29 1   
     3     2    31 1   
     4     3    22 1   
     5     4     8 ar  
     6     4    20 ar  
     7     4    32 1   
     8     5     9 ar  
     9     5    21 ar  
    10     5    33 1   
    11     6     7 ar  
    12     6    23 ar  
    13     6    34 1   
    14     7    24 ar  
    15     7    35 1   
    16     8    26 ar  
    17     8    36 1   
    18     9    27 ar  
    19     9    37 1   
    20    10    20 ar  
    21    10    22 ar  
    22    10    38 1   
    23    11    21 ar  
    24    11    25 ar  
    25    11    39 1   
    26    12    23 ar  
    27    12    28 ar  
    28    12    40 1   
    29    13    29 1   
    30    13    41 1   
    31    13    42 1   
    32    13    52 1   
    33    14    15 1   
    34    14    24 1   
    35    14    43 1   
    36    14    44 1   
    37    15    25 1   
    38    15    45 1   
    39    15    46 1   
    40    16    18 1   
    41    16    29 1   
    42    16    47 1   
    43    16    48 1   
    44    17    21 1   
    45    17    26 1   
    46    17    49 1   
    47    18    23 1   
    48    19    27 1   
    49    19    28 1   
    50    20    51 1   
    51    22    26 ar  
    52    24    28 ar  
    53    25    27 ar  
    54    29    50 1   
    55    30    52 1   
@<TRIPOS>SUBSTRUCTURE
     1 3FF         1 TEMP              0 ****  ****    0 ROOT
