@<TRIPOS>MOLECULE
3FF
   52    55     1     0     0
SMALL
No Charge or Current Charge


@<TRIPOS>ATOM
      1 OAA          1.0480     1.1220    -2.6070 o          1 3FF      -0.534100
      2 OAC          6.9120    -2.8730     0.2250 oh         1 3FF      -0.621000
      3 FAE         -7.2530     1.2350     0.8870 f          1 3FF      -0.167000
      4 CAF         -6.2710    -2.5860    -0.4300 ca         1 3FF      -0.154000
      5 CAG         -2.8010     0.2180    -1.1910 ca         1 3FF      -0.202000
      6 CAH          4.4340     1.4380     1.0660 ca         1 3FF      -0.182000
      7 CAI          3.3740     2.3330     1.2800 ca         1 3FF      -0.082000
      8 CAJ         -5.2450    -1.6500    -0.1940 ca         1 3FF      -0.077000
      9 CAK         -1.4770     0.3920    -1.6160 ca         1 3FF      -0.015000
     10 CAL         -7.9380    -0.9370     0.2150 ca         1 3FF      -0.186000
     11 CAM         -2.3120     1.4680     0.8100 ca         1 3FF      -0.218000
     12 CAN          3.1680     0.3910    -0.7220 ca         1 3FF      -0.096000
     13 CAO          8.9070    -1.5400     0.6110 c3         1 3FF       0.128600
     14 CAP          1.0750     3.2340     0.7290 c3         1 3FF      -0.026100
     15 CAQ         -0.1260     2.5160     1.3520 c3         1 3FF      -0.037100
     16 CAR          6.5800    -0.4500     0.5320 c3         1 3FF       0.127600
     17 NAS         -4.5280     0.5980     0.4860 nu         1 3FF      -0.994000
     18 OAT          5.3450    -0.4400    -0.2110 os         1 3FF      -0.326100
     19 CAU          0.8770     1.1750    -1.3930 c          1 3FF       0.601300
     20 CAV         -7.6110    -2.2250    -0.2290 ca         1 3FF       0.192000
     21 CAW         -3.2170     0.7390     0.0350 ca         1 3FF       0.369000
     22 CAX         -6.9160    -0.0030     0.4510 ca         1 3FF       0.178000
     23 CAY          4.3340     0.4610     0.0550 ca         1 3FF       0.131100
     24 CAZ          2.2050     2.2590     0.4960 ca         1 3FF      -0.083300
     25 CBA         -0.9750     1.6650     0.4050 ca         1 3FF       0.027700
     26 CBB         -5.5530    -0.3400     0.2340 ca         1 3FF       0.230000
     27 CBC         -0.5350     1.0990    -0.8300 ca         1 3FF      -0.211600
     28 CBD          2.0880     1.2730    -0.5000 ca         1 3FF      -0.112600
     29 CBE          7.4910    -1.5760    -0.0220 c3         1 3FF       0.167300
     30 HOAB        10.5990    -2.5370     0.5060 ho         1 3FF       0.444000
     31 HOAC         7.6680    -3.4990     0.1660 ho         1 3FF       0.435000
     32 HAF         -6.0260    -3.5930    -0.7610 ha         1 3FF       0.141000
     33 HAG         -3.5000    -0.3110    -1.8300 ha         1 3FF       0.124000
     34 HAH          5.3210     1.5230     1.6870 ha         1 3FF       0.115000
     35 HAI          3.4630     3.0890     2.0580 ha         1 3FF       0.111000
     36 HAJ         -4.2110    -1.9530    -0.3270 ha         1 3FF       0.135000
     37 HAK         -1.1830    -0.0430    -2.5700 ha         1 3FF       0.134000
     38 HAL         -8.9760    -0.6640     0.3780 ha         1 3FF       0.153000
     39 HAM         -2.6520     1.8880     1.7530 ha         1 3FF       0.110000
     40 HAN          3.1010    -0.3620    -1.5040 ha         1 3FF       0.146000
     41 HAO          8.8190    -1.5970     1.7040 h1         1 3FF       0.019200
     42 HAOA         9.3850    -0.5830     0.3640 h1         1 3FF       0.019200
     43 HAP          0.7760     3.7300    -0.2030 hc         1 3FF       0.054200
     44 HAPA         1.3970     4.0340     1.4080 hc         1 3FF       0.054200
     45 HAQ          0.2220     1.8990     2.1900 hc         1 3FF       0.055200
     46 HAQA        -0.7620     3.2900     1.8000 hc         1 3FF       0.055200
     47 HAR          7.0960     0.5130     0.4240 h1         1 3FF       0.034700
     48 HARA         6.3920    -0.6240     1.6000 h1         1 3FF       0.034700
     49 HNAS        -4.8150     1.3520     1.1130 hn         1 3FF       0.505000
     50 HBE          7.6080    -1.4110    -1.1030 h1         1 3FF       0.101700
     51 FAD         -8.5910    -3.1260    -0.4540 f          1 3FF      -0.169000
     52 OAB          9.7010    -2.6320     0.1170 oh         1 3FF      -0.640000
@<TRIPOS>BOND
     1     1    19 2   
     2     2    29 1   
     3     2    31 1   
     4     3    22 1   
     5     4     8 ar  
     6     4    20 ar  
     7     4    32 1   
     8     5     9 ar  
     9     5    21 ar  
    10     5    33 1   
    11     6     7 ar  
    12     6    23 ar  
    13     6    34 1   
    14     7    24 ar  
    15     7    35 1   
    16     8    26 ar  
    17     8    36 1   
    18     9    27 ar  
    19     9    37 1   
    20    10    20 ar  
    21    10    22 ar  
    22    10    38 1   
    23    11    21 ar  
    24    11    25 ar  
    25    11    39 1   
    26    12    23 ar  
    27    12    28 ar  
    28    12    40 1   
    29    13    29 1   
    30    13    41 1   
    31    13    42 1   
    32    13    52 1   
    33    14    15 1   
    34    14    24 1   
    35    14    43 1   
    36    14    44 1   
    37    15    25 1   
    38    15    45 1   
    39    15    46 1   
    40    16    18 1   
    41    16    29 1   
    42    16    47 1   
    43    16    48 1   
    44    17    21 1   
    45    17    26 1   
    46    17    49 1   
    47    18    23 1   
    48    19    27 1   
    49    19    28 1   
    50    20    51 1   
    51    22    26 ar  
    52    24    28 ar  
    53    25    27 ar  
    54    29    50 1   
    55    30    52 1   
@<TRIPOS>SUBSTRUCTURE
     1 3FF         1 TEMP              0 ****  ****    0 ROOT
