@<TRIPOS>MOLECULE
3FG
   21    21     1     0     0
SMALL
No Charge or Current Charge


@<TRIPOS>ATOM
      1 N           17.3610    26.6640    35.7980 n8         1 3FG      -0.997200
      2 CD1         14.4160    29.5190    34.0670 ca         1 3FG       0.149100
      3 CG1         14.9500    28.3690    34.6650 ca         1 3FG      -0.194500
      4 CZ          14.5170    30.7590    34.7080 ca         1 3FG      -0.272000
      5 CD2         15.1560    30.8490    35.9500 ca         1 3FG       0.149100
      6 OD2         15.2510    32.0590    36.5660 oh         1 3FG      -0.553100
      7 CG2         15.6920    29.7010    36.5550 ca         1 3FG      -0.194500
      8 CB          15.5920    28.4480    35.9170 ca         1 3FG       0.060700
      9 CA          16.1780    27.1950    36.5780 c3         1 3FG       0.032800
     10 C           15.0160    26.1710    36.9030 c          1 3FG       0.702000
     11 O           14.7970    25.2610    36.1120 o          1 3FG      -0.718000
     12 OXT         14.4030    26.3050    37.9530 o          1 3FG      -0.718000
     13 HN1         17.7160    25.8200    36.2660 hn         1 3FG       0.389000
     14 HN2         17.0160    26.2990    34.9020 hn         1 3FG       0.389000
     15 HA          16.5760    27.4950    37.5580 h1         1 3FG       0.047700
     16 HD1         13.4940    30.3270    32.6080 ho         1 3FG       0.452500
     17 HG1         14.8650    27.4130    34.1560 ha         1 3FG       0.134500
     18 HZ          14.1050    31.6540    34.2480 ha         1 3FG       0.104000
     19 HD2         15.7240    31.9370    37.4160 ho         1 3FG       0.452500
     20 HG2         16.1880    29.7750    37.5190 ha         1 3FG       0.134500
     21 OD1         13.7970    29.4290    32.8600 oh         1 3FG      -0.553100
@<TRIPOS>BOND
     1     1     9 1   
     2     1    13 1   
     3     1    14 1   
     4     2     3 ar  
     5     2     4 ar  
     6     2    21 1   
     7     3     8 ar  
     8     3    17 1   
     9     4     5 ar  
    10     4    18 1   
    11     5     6 1   
    12     5     7 ar  
    13     6    19 1   
    14     7     8 ar  
    15     7    20 1   
    16     8     9 1   
    17     9    10 1   
    18     9    15 1   
    19    10    11 1   
    20    10    12 1   
    21    16    21 1   
@<TRIPOS>SUBSTRUCTURE
     1 3FG         1 TEMP              0 ****  ****    0 ROOT
