@<TRIPOS>MOLECULE
3FG
   21    21     1     0     0
SMALL
abcg2


@<TRIPOS>ATOM
      1 N           16.8380    26.3050    35.3720 n8         1 3FG      -0.997200
      2 CD1         14.7100    29.6210    33.9420 ca         1 3FG       0.149100
      3 CG1         15.3140    28.4770    34.4630 ca         1 3FG      -0.194500
      4 CZ          14.4950    30.7370    34.7390 ca         1 3FG      -0.272000
      5 CD2         14.8900    30.6980    36.0750 ca         1 3FG       0.149100
      6 OD2         14.6680    31.8080    36.8110 oh         1 3FG      -0.553100
      7 CG2         15.4860    29.5610    36.6040 ca         1 3FG      -0.194500
      8 CB          15.7020    28.4440    35.7950 ca         1 3FG       0.060700
      9 CA          16.3280    27.2020    36.3950 c3         1 3FG       0.032800
     10 C           15.2650    26.5460    37.3370 c          1 3FG       0.702000
     11 O           14.5860    25.6310    36.8340 o          1 3FG      -0.718000
     12 OXT         15.1790    27.0090    38.4890 o          1 3FG      -0.718000
     13 HN1         17.5120    25.6830    35.8020 hn         1 3FG       0.389000
     14 HN2         16.0700    25.7000    35.0990 hn         1 3FG       0.389000
     15 HA          17.1700    27.5270    37.0130 h1         1 3FG       0.047700
     16 HD1         13.9650    30.4380    32.3800 ho         1 3FG       0.452500
     17 HG1         15.4890    27.6290    33.8150 ha         1 3FG       0.134500
     18 HZ          14.0340    31.6330    34.3370 ha         1 3FG       0.104000
     19 HD2         14.9690    31.6700    37.7170 ho         1 3FG       0.452500
     20 HG2         15.7840    29.5370    37.6460 ha         1 3FG       0.134500
     21 OD1         14.3530    29.5940    32.6400 oh         1 3FG      -0.553100
@<TRIPOS>BOND
     1     1     9 1   
     2     1    13 1   
     3     1    14 1   
     4     2     3 ar  
     5     2     4 ar  
     6     2    21 1   
     7     3     8 ar  
     8     3    17 1   
     9     4     5 ar  
    10     4    18 1   
    11     5     6 1   
    12     5     7 ar  
    13     6    19 1   
    14     7     8 ar  
    15     7    20 1   
    16     8     9 1   
    17     9    10 1   
    18     9    15 1   
    19    10    11 1   
    20    10    12 1   
    21    16    21 1   
@<TRIPOS>SUBSTRUCTURE
     1 3FG         1 TEMP              0 ****  ****    0 ROOT
