@<TRIPOS>MOLECULE
3FH
   16    16     1     0     0
SMALL
No Charge or Current Charge


@<TRIPOS>ATOM
      1 S1           0.5440     2.0030     0.0840 s          1 3FH      -0.478400
      2 C1           0.7800     0.3320     0.0850 cs         1 3FH       0.355600
      3 C2          -0.3020    -0.6510     0.0300 cc         1 3FH      -0.282400
      4 C6          -1.7220    -0.0990    -0.0200 c3         1 3FH       0.377200
      5 F1          -2.0180     0.6470     1.0690 f          1 3FH      -0.103333
      6 F2          -1.9340     0.6650    -1.1160 f          1 3FH      -0.103333
      7 F3          -2.6490    -1.0830    -0.0630 f          1 3FH      -0.103333
      8 C3          -0.0360    -2.0150     0.0230 cd         1 3FH      -0.038000
      9 C4           1.3190    -2.4750     0.0720 cd         1 3FH      -0.281000
     10 C5           2.3300    -1.5470     0.1250 cc         1 3FH      -0.019400
     11 N1           2.0780    -0.1810     0.1290 n          1 3FH      -0.054500
     12 O1           3.2060     0.7000     0.1890 oh         1 3FH      -0.396100
     13 H1          -0.8420    -2.7480    -0.0190 ha         1 3FH       0.214000
     14 H2           1.5460    -3.5390     0.0700 ha         1 3FH       0.217000
     15 H3           3.3920    -1.7720     0.1720 h4         1 3FH       0.227000
     16 H4           3.3850     0.9290    -0.7490 ho         1 3FH       0.469000
@<TRIPOS>BOND
     1     1     2 2   
     2     2     3 1   
     3     2    11 1   
     4     3     4 1   
     5     3     8 2   
     6     4     5 1   
     7     4     6 1   
     8     4     7 1   
     9     8     9 1   
    10     8    13 1   
    11     9    10 2   
    12     9    14 1   
    13    10    11 1   
    14    10    15 1   
    15    11    12 1   
    16    12    16 1   
@<TRIPOS>SUBSTRUCTURE
     1 3FH         1 TEMP              0 ****  ****    0 ROOT
