@<TRIPOS>MOLECULE
3FH
   16    16     1     0     0
SMALL
bcc


@<TRIPOS>ATOM
      1 S1           0.6000     2.0150     0.0540 s          1 3FH      -0.478400
      2 C1           0.7860     0.3590     0.0600 cs         1 3FH       0.422600
      3 C2          -0.2690    -0.6060     0.0210 cc         1 3FH      -0.282400
      4 C6          -1.6890    -0.1220    -0.0190 c3         1 3FH       0.741100
      5 F1          -2.0120     0.5860     1.0680 f          1 3FH      -0.224633
      6 F2          -1.9420     0.6380    -1.0870 f          1 3FH      -0.224633
      7 F3          -2.5500    -1.1460    -0.0720 f          1 3FH      -0.224633
      8 C3          -0.0130    -1.9520     0.0300 cd         1 3FH       0.012000
      9 C4           1.3030    -2.4330     0.0720 cd         1 3FH      -0.231000
     10 C5           2.3130    -1.5260     0.1070 cc         1 3FH       0.030600
     11 N1           2.0400    -0.2060     0.0950 n          1 3FH      -0.121500
     12 O1           3.1020     0.6230     0.2090 oh         1 3FH      -0.357100
     13 H1          -0.8210    -2.6690     0.0040 ha         1 3FH       0.164000
     14 H2           1.5200    -3.4890     0.0800 ha         1 3FH       0.167000
     15 H3           3.3590    -1.7920     0.1500 h4         1 3FH       0.177000
     16 H4           3.3500     0.8850    -0.6910 ho         1 3FH       0.430000
@<TRIPOS>BOND
     1     1     2 2   
     2     2     3 1   
     3     2    11 1   
     4     3     4 1   
     5     3     8 2   
     6     4     5 1   
     7     4     6 1   
     8     4     7 1   
     9     8     9 1   
    10     8    13 1   
    11     9    10 2   
    12     9    14 1   
    13    10    11 1   
    14    10    15 1   
    15    11    12 1   
    16    12    16 1   
@<TRIPOS>SUBSTRUCTURE
     1 3FH         1 TEMP              0 ****  ****    0 ROOT
