@<TRIPOS>MOLECULE
3FI
   42    43     1     0     0
SMALL
bcc


@<TRIPOS>ATOM
      1 C1          -6.5740    -1.7530    -0.9350 ca         1 3FI      -0.177000
      2 C2          -5.2420    -1.3970    -0.8120 ca         1 3FI      -0.112000
      3 C3          -4.8970    -0.2300    -0.1250 ca         1 3FI      -0.196900
      4 C4          -5.9060     0.5590     0.4220 ca         1 3FI      -0.073000
      5 C5          -7.2480     0.2070     0.3080 ca         1 3FI      -0.146600
      6 C6          -7.5700    -0.9600    -0.3770 ca         1 3FI      -0.081000
      7 O40         -9.5080     0.6780     0.8000 o          1 3FI      -0.822800
      8 C38         -8.3360     1.0810     0.9230 c          1 3FI       0.925200
      9 O39         -7.9570     2.1200     1.4950 o          1 3FI      -0.822800
     10 C9          -3.5100     0.1980     0.0460 ce         1 3FI       0.461800
     11 N18         -2.5440    -0.5230    -0.3510 n2         1 3FI      -0.476200
     12 O1          -1.3320     0.0530    -0.1180 os         1 3FI      -0.209300
     13 C22         -0.2830    -0.8420    -0.4560 c3         1 3FI       0.155400
     14 C23          1.0280    -0.1140    -0.2440 c3         1 3FI      -0.089400
     15 C8           2.2110    -1.0310    -0.5110 c3         1 3FI       0.156800
     16 N31          3.4630    -0.3290    -0.2820 n7         1 3FI      -0.796200
     17 C30          4.6160    -1.1880    -0.4850 c3         1 3FI       0.182000
     18 C16          5.8730    -0.4820    -0.0730 cc         1 3FI       0.111400
     19 N11          6.3170     0.4980    -0.9140 ns         1 3FI      -0.474100
     20 C15          6.5350    -0.7550     1.0680 cd         1 3FI      -0.317200
     21 C14          7.7220    -0.0120     1.4160 c          1 3FI       0.734700
     22 O33          8.3950    -0.1800     2.4170 o          1 3FI      -0.605500
     23 N13          8.0720     0.9630     0.4920 ns         1 3FI      -0.604500
     24 C12          7.4290     1.2650    -0.6790 c          1 3FI       0.828500
     25 O34          7.8070     2.1280    -1.4420 o          1 3FI      -0.634500
     26 H1          -6.8400    -2.6560    -1.4700 ha         1 3FI       0.107000
     27 H2          -4.4710    -2.0180    -1.2480 ha         1 3FI       0.119000
     28 H4          -5.6430     1.4670     0.9520 ha         1 3FI       0.147000
     29 H6          -8.6080    -1.2490    -0.4760 ha         1 3FI       0.147000
     30 H9          -3.3410     1.1590     0.5340 h4         1 3FI      -0.000200
     31 H22         -0.3310    -1.7340     0.1800 h1         1 3FI       0.031200
     32 H22A        -0.3830    -1.1670    -1.4960 h1         1 3FI       0.031200
     33 H23          1.0750     0.7540    -0.9090 hc         1 3FI       0.059700
     34 H23A         1.0880     0.2570     0.7830 hc         1 3FI       0.059700
     35 H8           2.1740    -1.8820     0.1750 h1         1 3FI       0.033200
     36 H8A          2.1410    -1.4470    -1.5280 h1         1 3FI       0.033200
     37 HN31         3.5080     0.4600    -0.9180 hn         1 3FI       0.353800
     38 H30          4.5060    -2.0710     0.1440 h1         1 3FI       0.052700
     39 H30A         4.7240    -1.5460    -1.5200 h1         1 3FI       0.052700
     40 HN11         5.8420     0.6630    -1.7900 hn         1 3FI       0.342500
     41 H15          6.1840    -1.5250     1.7380 ha         1 3FI       0.174000
     42 HN13         8.9020     1.5070     0.6930 hn         1 3FI       0.340500
@<TRIPOS>BOND
     1     1     2 ar  
     2     1     6 ar  
     3     1    26 1   
     4     2     3 ar  
     5     2    27 1   
     6     3     4 ar  
     7     3    10 1   
     8     4     5 ar  
     9     4    28 1   
    10     5     6 ar  
    11     5     8 1   
    12     6    29 1   
    13     7     8 1   
    14     8     9 1   
    15    10    11 2   
    16    10    30 1   
    17    11    12 1   
    18    12    13 1   
    19    13    14 1   
    20    13    31 1   
    21    13    32 1   
    22    14    15 1   
    23    14    33 1   
    24    14    34 1   
    25    15    16 1   
    26    15    35 1   
    27    15    36 1   
    28    16    17 1   
    29    16    37 1   
    30    17    18 1   
    31    17    38 1   
    32    17    39 1   
    33    18    19 1   
    34    18    20 2   
    35    19    24 1   
    36    19    40 1   
    37    20    21 1   
    38    20    41 1   
    39    21    22 2   
    40    21    23 1   
    41    23    24 1   
    42    23    42 1   
    43    24    25 2   
@<TRIPOS>SUBSTRUCTURE
     1 3FI         1 TEMP              0 ****  ****    0 ROOT
