@<TRIPOS>MOLECULE
3FI
   42    43     1     0     0
SMALL
No Charge or Current Charge


@<TRIPOS>ATOM
      1 C1          -6.7180    -1.7460    -0.9480 ca         1 3FI      -0.159000
      2 C2          -5.3710    -1.4140    -0.7460 ca         1 3FI      -0.094000
      3 C3          -5.0260    -0.2350    -0.0500 ca         1 3FI      -0.196900
      4 C4          -6.0550     0.6000     0.4360 ca         1 3FI      -0.055000
      5 C5          -7.4190     0.2750     0.2390 ca         1 3FI      -0.146600
      6 C6          -7.7370    -0.9110    -0.4610 ca         1 3FI      -0.063000
      7 O40         -9.6830     0.8650     0.5740 o          1 3FI      -0.717500
      8 C38         -8.5170     1.1830     0.7670 c          1 3FI       0.714600
      9 O39         -8.1990     2.2000     1.3670 o          1 3FI      -0.717500
     10 C9          -3.5990     0.1550     0.1860 ce         1 3FI       0.461800
     11 N18         -2.6050    -0.5710    -0.2360 n2         1 3FI      -0.377700
     12 O1          -1.3340    -0.0450     0.0800 os         1 3FI      -0.331000
     13 C22         -0.2960    -0.9080    -0.4230 c3         1 3FI       0.178600
     14 C23          1.0600    -0.2810    -0.0490 c3         1 3FI      -0.089400
     15 C8           2.2510    -1.1220    -0.5410 c3         1 3FI       0.156800
     16 N31          3.5190    -0.4870    -0.1440 n7         1 3FI      -0.851400
     17 C30          4.7440    -1.2260    -0.5300 c3         1 3FI       0.182000
     18 C16          5.9920    -0.4790    -0.1010 cc         1 3FI       0.111400
     19 N11          6.4750     0.4720    -0.9820 ns         1 3FI      -0.520600
     20 C15          6.6800    -0.6420     1.0750 cd         1 3FI      -0.367200
     21 C14          7.8740     0.1520     1.3830 c          1 3FI       0.592200
     22 O33          8.5180     0.0440     2.4110 o          1 3FI      -0.530000
     23 N13          8.2070     1.0370     0.4030 ns         1 3FI      -0.470500
     24 C12          7.5740     1.2520    -0.7780 c          1 3FI       0.619000
     25 O34          7.9530     2.0730    -1.5910 o          1 3FI      -0.559000
     26 H1          -6.9770    -2.6560    -1.4840 ha         1 3FI       0.089000
     27 H2          -4.5990    -2.0780    -1.1320 ha         1 3FI       0.101000
     28 H4          -5.7900     1.5090     0.9730 ha         1 3FI       0.129000
     29 H6          -8.7750    -1.1900    -0.6300 ha         1 3FI       0.129000
     30 H9          -3.4290     1.0850     0.7350 h4         1 3FI      -0.000200
     31 H22         -0.3720    -1.9090     0.0210 h1         1 3FI       0.031200
     32 H22A        -0.3650    -1.0050    -1.5150 h1         1 3FI       0.031200
     33 H23          1.1210     0.7250    -0.4800 hc         1 3FI       0.059700
     34 H23A         1.1170    -0.1760     1.0410 hc         1 3FI       0.059700
     35 H8           2.1790    -2.1310    -0.1100 h1         1 3FI       0.033200
     36 H8A          2.1960    -1.2190    -1.6350 h1         1 3FI       0.033200
     37 HN31         3.5610     0.4490    -0.5660 hn         1 3FI       0.409000
     38 H30          4.7530    -2.2190    -0.0600 h1         1 3FI       0.052700
     39 H30A         4.7760    -1.3840    -1.6170 h1         1 3FI       0.052700
     40 HN11         6.0040     0.6350    -1.8650 hn         1 3FI       0.456000
     41 H15          6.3800    -1.3530     1.8340 ha         1 3FI       0.224000
     42 HN13         9.0220     1.6020     0.5760 hn         1 3FI       0.340500
@<TRIPOS>BOND
     1     1     2 ar  
     2     1     6 ar  
     3     1    26 1   
     4     2     3 ar  
     5     2    27 1   
     6     3     4 ar  
     7     3    10 1   
     8     4     5 ar  
     9     4    28 1   
    10     5     6 ar  
    11     5     8 1   
    12     6    29 1   
    13     7     8 1   
    14     8     9 1   
    15    10    11 2   
    16    10    30 1   
    17    11    12 1   
    18    12    13 1   
    19    13    14 1   
    20    13    31 1   
    21    13    32 1   
    22    14    15 1   
    23    14    33 1   
    24    14    34 1   
    25    15    16 1   
    26    15    35 1   
    27    15    36 1   
    28    16    17 1   
    29    16    37 1   
    30    17    18 1   
    31    17    38 1   
    32    17    39 1   
    33    18    19 1   
    34    18    20 2   
    35    19    24 1   
    36    19    40 1   
    37    20    21 1   
    38    20    41 1   
    39    21    22 2   
    40    21    23 1   
    41    23    24 1   
    42    23    42 1   
    43    24    25 2   
@<TRIPOS>SUBSTRUCTURE
     1 3FI         1 TEMP              0 ****  ****    0 ROOT
