@<TRIPOS>MOLECULE
3FK
   25    25     1     0     0
SMALL
bcc


@<TRIPOS>ATOM
      1 C11          1.4250    -1.3420     0.1540 ca         1 3FK       0.027400
      2 C12          2.3960    -0.3510     0.1660 ca         1 3FK      -0.151000
      3 C13          1.9730     0.9570    -0.0040 ca         1 3FK       0.027400
      4 C14          0.6370     1.2790    -0.1830 ca         1 3FK      -0.103500
      5 C7          -2.3170     0.5640     1.1530 c          1 3FK       0.937600
      6 C8          -1.7800     0.6000    -0.3150 c3         1 3FK       0.051800
      7 C9          -0.3160     0.2680    -0.1920 ca         1 3FK      -0.003300
      8 C10          0.0830    -1.0560    -0.0150 ca         1 3FK      -0.103500
      9 CL1          1.9190    -2.9900     0.3650 cl         1 3FK      -0.150400
     10 CL2          3.1560     2.2240    -0.0020 cl         1 3FK      -0.150400
     11 N21         -2.4550    -0.3170    -1.2140 n3         1 3FK      -0.676600
     12 H2           3.4410    -0.5900     0.2990 ha         1 3FK       0.140000
     13 H3           0.3380     2.3080    -0.3290 ha         1 3FK       0.165000
     14 H12         -4.1620     0.9240    -1.5510 h1         1 3FK       0.018533
     15 H13         -4.3520    -0.7890    -1.9360 h1         1 3FK       0.018533
     16 H14         -4.3230    -0.2780    -0.2550 h1         1 3FK       0.018533
     17 H15         -2.0600     0.7960    -2.9950 h1         1 3FK       0.018533
     18 H16         -0.8640    -0.4430    -2.5890 h1         1 3FK       0.018533
     19 H17         -2.4360    -0.9190    -3.2140 h1         1 3FK       0.018533
     20 H25         -1.8680     1.6380    -0.6770 h1         1 3FK       0.025700
     21 H26         -0.6570    -1.8430    -0.0230 ha         1 3FK       0.165000
     22 O17         -2.6490    -0.5420     1.6070 o          1 3FK      -0.809300
     23 C22         -3.8870    -0.0950    -1.2350 c3         1 3FK       0.153600
     24 C23         -1.9280    -0.2080    -2.5610 c3         1 3FK       0.153600
     25 OXT         -2.3010     1.6580     1.7440 o          1 3FK      -0.809300
@<TRIPOS>BOND
     1     1     2 ar  
     2     1     8 ar  
     3     1     9 1   
     4     2     3 ar  
     5     2    12 1   
     6     3     4 ar  
     7     3    10 1   
     8     4     7 ar  
     9     4    13 1   
    10     5     6 1   
    11     5    22 1   
    12     5    25 1   
    13     6     7 1   
    14     6    11 1   
    15     6    20 1   
    16     7     8 ar  
    17     8    21 1   
    18    11    23 1   
    19    11    24 1   
    20    14    23 1   
    21    15    23 1   
    22    16    23 1   
    23    17    24 1   
    24    18    24 1   
    25    19    24 1   
@<TRIPOS>SUBSTRUCTURE
     1 3FK         1 TEMP              0 ****  ****    0 ROOT
