@<TRIPOS>MOLECULE
3FK
   25    25     1     0     0
SMALL
No Charge or Current Charge


@<TRIPOS>ATOM
      1 C11          1.5000    -1.3980     0.1770 ca         1 3FK       0.119000
      2 C12          2.4490    -0.3680     0.0930 ca         1 3FK      -0.133000
      3 C13          2.0230     0.9570    -0.0880 ca         1 3FK       0.119000
      4 C14          0.6530     1.2530    -0.1860 ca         1 3FK      -0.085500
      5 C7          -2.4170     0.5680     1.2400 c          1 3FK       0.727000
      6 C8          -1.8000     0.5470    -0.2130 c3         1 3FK       0.051800
      7 C9          -0.3060     0.2230    -0.1010 ca         1 3FK      -0.003300
      8 C10          0.1300    -1.1060     0.0810 ca         1 3FK      -0.085500
      9 Cl1          2.0300    -3.0590     0.4030 cl         1 3FK      -0.242000
     10 Cl2          3.2090     2.2500    -0.1950 cl         1 3FK      -0.242000
     11 N21         -2.4980    -0.2890    -1.2600 n3         1 3FK      -0.676600
     12 H2           3.5090    -0.5950     0.1680 ha         1 3FK       0.122000
     13 H3           0.3390     2.2840    -0.3270 ha         1 3FK       0.147000
     14 H12         -4.1770     0.9900    -1.5740 h1         1 3FK       0.018533
     15 H13         -4.4340    -0.7070    -2.0480 h1         1 3FK       0.018533
     16 H14         -4.4220    -0.2630    -0.3320 h1         1 3FK       0.018533
     17 H15         -1.9440     0.8570    -2.9730 h1         1 3FK       0.018533
     18 H16         -0.8310    -0.4780    -2.5880 h1         1 3FK       0.018533
     19 H17         -2.4050    -0.8260    -3.3220 h1         1 3FK       0.018533
     20 H25         -1.8660     1.5880    -0.5560 h1         1 3FK       0.025700
     21 H26         -0.5980    -1.9100     0.1450 ha         1 3FK       0.147000
     22 O17         -2.4860    -0.4790     1.8760 o          1 3FK      -0.704000
     23 C22         -3.9590    -0.0530    -1.3050 c3         1 3FK       0.153600
     24 C23         -1.8860    -0.1760    -2.6050 c3         1 3FK       0.153600
     25 OXT         -2.8000     1.6430     1.6880 o          1 3FK      -0.704000
@<TRIPOS>BOND
     1     1     2 ar  
     2     1     8 ar  
     3     1     9 1   
     4     2     3 ar  
     5     2    12 1   
     6     3     4 ar  
     7     3    10 1   
     8     4     7 ar  
     9     4    13 1   
    10     5     6 1   
    11     5    22 1   
    12     5    25 1   
    13     6     7 1   
    14     6    11 1   
    15     6    20 1   
    16     7     8 ar  
    17     8    21 1   
    18    11    23 1   
    19    11    24 1   
    20    14    23 1   
    21    15    23 1   
    22    16    23 1   
    23    17    24 1   
    24    18    24 1   
    25    19    24 1   
@<TRIPOS>SUBSTRUCTURE
     1 3FK         1 TEMP              0 ****  ****    0 ROOT
