@<TRIPOS>MOLECULE
3FL
   46    47     1     0     0
SMALL
No Charge or Current Charge


@<TRIPOS>ATOM
      1 C8           2.0600    -0.1760    -0.8870 c3         1 3FL       0.154800
      2 C5          -7.1780     0.2760    -0.1130 ca         1 3FL      -0.138600
      3 C6          -7.7440    -0.9930    -0.3800 ca         1 3FL      -0.079000
      4 C2          -5.7820    -2.0990     0.5450 ca         1 3FL      -0.134000
      5 C4          -5.8990     0.3310     0.4910 ca         1 3FL      -0.058000
      6 O40         -9.0150     1.4600    -1.0140 o          1 3FL      -0.721500
      7 C38         -7.9260     1.5520    -0.4650 c          1 3FL       0.712600
      8 O39         -7.4150     2.6270    -0.1850 o          1 3FL      -0.721500
      9 C1          -7.0490    -2.1700    -0.0530 ca         1 3FL      -0.152000
     10 C3          -5.2000    -0.8480     0.8210 ca         1 3FL      -0.134300
     11 C17         -3.8280    -0.7660     1.4760 c3         1 3FL       0.215100
     12 N18         -2.7860    -0.6030     0.4520 n7         1 3FL      -0.848400
     13 C7          -1.4070    -0.5740     0.9650 c3         1 3FL       0.161800
     14 C22         -0.4090    -0.3970    -0.1970 c3         1 3FL      -0.079400
     15 C23          1.0620    -0.3540     0.2750 c3         1 3FL      -0.078400
     16 N31          3.4400    -0.1510    -0.3700 n7         1 3FL      -0.855400
     17 C30          4.4960    -0.0110    -1.3990 c3         1 3FL       0.181000
     18 C16          5.8740     0.0340    -0.7680 cc         1 3FL       0.114400
     19 N11          6.3210     1.2740    -0.3490 ns         1 3FL      -0.519600
     20 C15          6.7150    -1.0300    -0.5600 cd         1 3FL      -0.372200
     21 C14          8.0260    -0.8620     0.0740 c          1 3FL       0.592200
     22 O33          8.8060    -1.7750     0.2790 o          1 3FL      -0.533000
     23 N13          8.3020     0.4250     0.4190 ns         1 3FL      -0.470500
     24 C12          7.5210     1.5220     0.2470 c          1 3FL       0.619000
     25 O34          7.8610     2.6360     0.5930 o          1 3FL      -0.559000
     26 H8           1.9330    -1.0050    -1.5970 h1         1 3FL       0.034700
     27 H8A          1.8310     0.7590    -1.4170 h1         1 3FL       0.034700
     28 H6          -8.7260    -1.0710    -0.8430 ha         1 3FL       0.126000
     29 H2          -5.2530    -3.0160     0.7950 ha         1 3FL       0.077000
     30 H4          -5.4380     1.2930     0.7050 ha         1 3FL       0.132000
     31 H1          -7.4950    -3.1380    -0.2650 ha         1 3FL       0.084000
     32 H17         -3.8110     0.0800     2.1770 h1         1 3FL       0.022700
     33 H17A        -3.6520    -1.6800     2.0580 h1         1 3FL       0.022700
     34 HN18        -2.8710    -1.3930    -0.1970 hn         1 3FL       0.406000
     35 H7          -1.2830     0.2550     1.6740 h1         1 3FL       0.021200
     36 H7A         -1.1780    -1.5090     1.4950 h1         1 3FL       0.021200
     37 H22         -0.5330    -1.2210    -0.9110 hc         1 3FL       0.047700
     38 H22A        -0.6420     0.5320    -0.7330 hc         1 3FL       0.047700
     39 H23          1.2940    -1.2830     0.8100 hc         1 3FL       0.045200
     40 H23A         1.1860     0.4700     0.9880 hc         1 3FL       0.045200
     41 HN31         3.5240     0.6320     0.2890 hn         1 3FL       0.407000
     42 H30          4.4610    -0.8560    -2.1000 h1         1 3FL       0.054200
     43 H30A         4.3430     0.9030    -1.9910 h1         1 3FL       0.054200
     44 HN13         9.1950     0.5840     0.8580 hn         1 3FL       0.340500
     45 H21          5.7400     2.0950    -0.4770 hn         1 3FL       0.457000
     46 H15          6.4560    -2.0430    -0.8440 ha         1 3FL       0.224000
@<TRIPOS>BOND
     1     1    15 1   
     2     1    16 1   
     3     1    26 1   
     4     1    27 1   
     5     2     3 ar  
     6     2     5 ar  
     7     2     7 1   
     8     3     9 ar  
     9     3    28 1   
    10     4     9 ar  
    11     4    10 ar  
    12     4    29 1   
    13     5    10 ar  
    14     5    30 1   
    15     6     7 1   
    16     7     8 1   
    17     9    31 1   
    18    10    11 1   
    19    11    12 1   
    20    11    32 1   
    21    11    33 1   
    22    12    13 1   
    23    12    34 1   
    24    13    14 1   
    25    13    35 1   
    26    13    36 1   
    27    14    15 1   
    28    14    37 1   
    29    14    38 1   
    30    15    39 1   
    31    15    40 1   
    32    16    17 1   
    33    16    41 1   
    34    17    18 1   
    35    17    42 1   
    36    17    43 1   
    37    18    19 1   
    38    18    20 2   
    39    19    24 1   
    40    19    45 1   
    41    20    21 1   
    42    20    46 1   
    43    21    22 2   
    44    21    23 1   
    45    23    24 1   
    46    23    44 1   
    47    24    25 2   
@<TRIPOS>SUBSTRUCTURE
     1 3FL         1 TEMP              0 ****  ****    0 ROOT
