@<TRIPOS>MOLECULE
3FL
   46    47     1     0     0
SMALL
bcc


@<TRIPOS>ATOM
      1 C8           2.0590    -0.0420    -0.8130 c3         1 3FL       0.154800
      2 C5          -7.0740     0.1160    -0.2110 ca         1 3FL      -0.138600
      3 C6          -7.6350    -1.1580    -0.3020 ca         1 3FL      -0.097000
      4 C2          -5.6970    -2.1130     0.7570 ca         1 3FL      -0.152000
      5 C4          -5.8160     0.2470     0.3660 ca         1 3FL      -0.076000
      6 O40         -8.9400     1.1310    -1.2440 o          1 3FL      -0.826800
      7 C38         -7.8240     1.3370    -0.7290 c          1 3FL       0.923200
      8 O39         -7.2570     2.4390    -0.5960 o          1 3FL      -0.826800
      9 C1          -6.9520    -2.2650     0.1780 ca         1 3FL      -0.170000
     10 C3          -5.1180    -0.8530     0.8570 ca         1 3FL      -0.134300
     11 C17         -3.7420    -0.6840     1.4420 c3         1 3FL       0.215100
     12 N18         -2.7540    -0.5190     0.3890 n7         1 3FL      -0.793200
     13 C7          -1.4050    -0.3910     0.9080 c3         1 3FL       0.161800
     14 C22         -0.3870    -0.2770    -0.2140 c3         1 3FL      -0.079400
     15 C23          1.0370    -0.1370     0.3080 c3         1 3FL      -0.078400
     16 N31          3.4080     0.0720    -0.2820 n7         1 3FL      -0.800200
     17 C30          4.4030     0.1840    -1.3330 c3         1 3FL       0.181000
     18 C16          5.7850     0.0790    -0.7610 cc         1 3FL       0.114400
     19 N11          6.2170     1.1470    -0.0290 ns         1 3FL      -0.473100
     20 C15          6.5720    -1.0040    -0.9200 cd         1 3FL      -0.322200
     21 C14          7.8790    -1.0480    -0.3120 c          1 3FL       0.734700
     22 O33          8.6690    -1.9720    -0.3940 o          1 3FL      -0.608500
     23 N13          8.2040     0.0870     0.4180 ns         1 3FL      -0.604500
     24 C12          7.4370     1.2080     0.5940 c          1 3FL       0.828500
     25 O34          7.8000     2.1680     1.2400 o          1 3FL      -0.634500
     26 H8           2.0110    -0.9470    -1.4260 h1         1 3FL       0.034700
     27 H8A          1.7990     0.7960    -1.4800 h1         1 3FL       0.034700
     28 H6          -8.6120    -1.2790    -0.7500 ha         1 3FL       0.144000
     29 H2          -5.1680    -2.9810     1.1340 ha         1 3FL       0.095000
     30 H4          -5.3730     1.2330     0.4450 ha         1 3FL       0.150000
     31 H1          -7.3950    -3.2500     0.1030 ha         1 3FL       0.102000
     32 H17         -3.7160     0.2100     2.0720 h1         1 3FL       0.022700
     33 H17A        -3.5190    -1.5350     2.1040 h1         1 3FL       0.022700
     34 HN18        -2.7960    -1.3290    -0.2190 hn         1 3FL       0.350800
     35 H7          -1.3620     0.5080     1.5310 h1         1 3FL       0.021200
     36 H7A         -1.1290    -1.2310     1.5680 h1         1 3FL       0.021200
     37 H22         -0.4540    -1.1630    -0.8550 hc         1 3FL       0.047700
     38 H22A        -0.6390     0.5820    -0.8430 hc         1 3FL       0.047700
     39 H23          1.2840    -0.9900     0.9450 hc         1 3FL       0.045200
     40 H23A         1.1080     0.7550     0.9410 hc         1 3FL       0.045200
     41 HN31         3.4470     0.8920     0.3140 hn         1 3FL       0.351800
     42 H30          4.2630    -0.6410    -2.0320 h1         1 3FL       0.054200
     43 H30A         4.3250     1.1120    -1.9200 h1         1 3FL       0.054200
     44 HN13         9.1110     0.0990     0.8690 hn         1 3FL       0.340500
     45 H21          5.6390     1.9720     0.0470 hn         1 3FL       0.343500
     46 H15          6.2340    -1.8510    -1.4960 ha         1 3FL       0.174000
@<TRIPOS>BOND
     1     1    15 1   
     2     1    16 1   
     3     1    26 1   
     4     1    27 1   
     5     2     3 ar  
     6     2     5 ar  
     7     2     7 1   
     8     3     9 ar  
     9     3    28 1   
    10     4     9 ar  
    11     4    10 ar  
    12     4    29 1   
    13     5    10 ar  
    14     5    30 1   
    15     6     7 1   
    16     7     8 1   
    17     9    31 1   
    18    10    11 1   
    19    11    12 1   
    20    11    32 1   
    21    11    33 1   
    22    12    13 1   
    23    12    34 1   
    24    13    14 1   
    25    13    35 1   
    26    13    36 1   
    27    14    15 1   
    28    14    37 1   
    29    14    38 1   
    30    15    39 1   
    31    15    40 1   
    32    16    17 1   
    33    16    41 1   
    34    17    18 1   
    35    17    42 1   
    36    17    43 1   
    37    18    19 1   
    38    18    20 2   
    39    19    24 1   
    40    19    45 1   
    41    20    21 1   
    42    20    46 1   
    43    21    22 2   
    44    21    23 1   
    45    23    24 1   
    46    23    44 1   
    47    24    25 2   
@<TRIPOS>SUBSTRUCTURE
     1 3FL         1 TEMP              0 ****  ****    0 ROOT
