@<TRIPOS>MOLECULE
3FN
   46    49     1     0     0
SMALL
No Charge or Current Charge


@<TRIPOS>ATOM
      1 C1          -6.6870    -0.8520    -0.3080 c6         1 3FN      -0.131400
      2 C2          -8.0170    -0.1620     0.0740 c6         1 3FN       0.157100
      3 C4          -6.9970     2.0350     0.0210 c6         1 3FN       0.157100
      4 C5          -5.6190     1.4500    -0.3600 c6         1 3FN      -0.131400
      5 C24          6.5770     0.2420    -0.0390 ca         1 3FN      -0.175000
      6 O3          -8.0470     1.1750    -0.4720 os         1 3FN      -0.447000
      7 C15          1.7020    -1.1870    -0.3630 c          1 3FN       0.557200
      8 C25          5.5080    -0.1660     0.7760 ca         1 3FN       0.194000
      9 C8          -2.9680    -0.3710     0.1850 ca         1 3FN       0.431900
     10 C6          -5.4900     0.0010     0.1690 c6         1 3FN       0.249500
     11 C10         -0.4770     0.0210     1.0820 ca         1 3FN      -0.299800
     12 C17          0.8750     0.2400     1.5770 cc         1 3FN      -0.054200
     13 C23          6.3400     1.1300    -1.0980 ca         1 3FN       0.175000
     14 C22          5.0460     1.6160    -1.3450 ca         1 3FN      -0.141000
     15 C21          3.9730     1.2090    -0.5290 ca         1 3FN      -0.117000
     16 C9          -0.7240    -0.7390    -0.0700 ca         1 3FN       0.309900
     17 C11         -1.5900     0.5690     1.7450 ca         1 3FN       0.207900
     18 C16          1.9000    -0.3560     0.8740 cd         1 3FN      -0.048100
     19 C20          4.2020     0.3060     0.5310 ca         1 3FN       0.076100
     20 F1           7.3660     1.5250    -1.8830 f          1 3FN      -0.174000
     21 O26          3.1640    -0.0950     1.3480 os         1 3FN      -0.209200
     22 N7          -2.8430     0.3730     1.2980 nb         1 3FN      -0.261000
     23 O19          2.6310    -1.7200    -0.9610 o          1 3FN      -0.514000
     24 N14          0.3620    -1.3290    -0.7930 n          1 3FN      -0.362300
     25 N12         -1.9800    -0.9380    -0.5180 nb         1 3FN      -0.313000
     26 N13         -4.2400    -0.6060    -0.3120 nu         1 3FN      -0.908100
     27 H1          -6.6450    -1.8520     0.1430 hc         1 3FN       0.059200
     28 H1A         -6.6520    -0.9890    -1.3980 hc         1 3FN       0.059200
     29 H2          -8.8660    -0.7320    -0.3280 h1         1 3FN       0.049700
     30 H2A         -8.1240    -0.1120     1.1680 h1         1 3FN       0.049700
     31 H4          -7.0860     2.1300     1.1130 h1         1 3FN       0.049700
     32 H4A         -7.1160     3.0350    -0.4200 h1         1 3FN       0.049700
     33 H5          -5.5040     1.4680    -1.4520 hc         1 3FN       0.059200
     34 H5A         -4.8220     2.0820     0.0530 hc         1 3FN       0.059200
     35 H24          7.5800    -0.1280     0.1510 ha         1 3FN       0.151000
     36 H6          -5.5100     0.0190     1.2720 h1         1 3FN       0.078700
     37 H17          1.0880     0.8440     2.4570 ha         1 3FN       0.205000
     38 H22          4.8760     2.3100    -2.1650 ha         1 3FN       0.136000
     39 H21          2.9740     1.5950    -0.7180 ha         1 3FN       0.127000
     40 H11         -1.4790     1.1710     2.6460 h4         1 3FN       0.027100
     41 HN13        -4.2680    -1.1700    -1.1610 hn         1 3FN       0.509000
     42 C18          0.0690    -2.1290    -2.0150 c3         1 3FN       0.081300
     43 F2           5.7440    -1.0220     1.7980 f          1 3FN      -0.157000
     44 H18          0.9820    -2.4220    -2.5470 h1         1 3FN       0.060367
     45 H18A        -0.4790    -3.0390    -1.7360 h1         1 3FN       0.060367
     46 H18B        -0.5480    -1.5400    -2.7050 h1         1 3FN       0.060367
@<TRIPOS>BOND
     1     1     2 1   
     2     1    10 1   
     3     1    27 1   
     4     1    28 1   
     5     2     6 1   
     6     2    29 1   
     7     2    30 1   
     8     3     4 1   
     9     3     6 1   
    10     3    31 1   
    11     3    32 1   
    12     4    10 1   
    13     4    33 1   
    14     4    34 1   
    15     5     8 ar  
    16     5    13 ar  
    17     5    35 1   
    18     7    18 1   
    19     7    23 2   
    20     7    24 1   
    21     8    19 ar  
    22     8    43 1   
    23     9    22 ar  
    24     9    25 ar  
    25     9    26 1   
    26    10    26 1   
    27    10    36 1   
    28    11    12 1   
    29    11    16 ar  
    30    11    17 ar  
    31    12    18 2   
    32    12    37 1   
    33    13    14 ar  
    34    13    20 1   
    35    14    15 ar  
    36    14    38 1   
    37    15    19 ar  
    38    15    39 1   
    39    16    24 1   
    40    16    25 ar  
    41    17    22 ar  
    42    17    40 1   
    43    18    21 1   
    44    19    21 1   
    45    24    42 1   
    46    26    41 1   
    47    42    44 1   
    48    42    45 1   
    49    42    46 1   
@<TRIPOS>SUBSTRUCTURE
     1 3FN         1 TEMP              0 ****  ****    0 ROOT
