@<TRIPOS>MOLECULE
3FN
   46    49     1     0     0
SMALL
abcg2


@<TRIPOS>ATOM
      1 C1          -6.5430    -0.8410    -0.2720 c6         1 3FN      -0.131400
      2 C2          -7.8440    -0.2430     0.2380 c6         1 3FN       0.157100
      3 C4          -7.0370     1.9470     0.0830 c6         1 3FN       0.157100
      4 C5          -5.6810     1.4900    -0.4360 c6         1 3FN      -0.131400
      5 C24          6.4840     0.1980    -0.0110 ca         1 3FN      -0.175000
      6 O3          -8.0680     1.0520    -0.2740 os         1 3FN      -0.447000
      7 C15          1.6430    -1.2440    -0.3300 c          1 3FN       0.557200
      8 C25          5.4130    -0.2930     0.7040 ca         1 3FN       0.194000
      9 C8          -2.9220    -0.2490    -0.0020 ca         1 3FN       0.431900
     10 C6          -5.3760     0.0800     0.0670 c6         1 3FN       0.249500
     11 C10         -0.4520     0.1210     0.9700 ca         1 3FN      -0.299800
     12 C17          0.8760     0.2760     1.4460 cc         1 3FN      -0.054200
     13 C23          6.2350     1.1790    -0.9530 ca         1 3FN       0.175000
     14 C22          4.9670     1.6710    -1.1810 ca         1 3FN      -0.141000
     15 C21          3.9080     1.1650    -0.4380 ca         1 3FN      -0.117000
     16 C9          -0.7060    -0.6890    -0.1520 ca         1 3FN       0.309900
     17 C11         -1.5770     0.7210     1.5320 ca         1 3FN       0.207900
     18 C16          1.8720    -0.3810     0.8270 cd         1 3FN      -0.048100
     19 C20          4.1200     0.1760     0.5080 ca         1 3FN       0.076100
     20 F1           7.2670     1.6640    -1.6590 f          1 3FN      -0.174000
     21 O26          3.1470    -0.3430     1.3070 os         1 3FN      -0.209200
     22 N7          -2.7950     0.5550     1.0710 nb         1 3FN      -0.261000
     23 O19          2.5500    -1.8520    -0.8700 o          1 3FN      -0.514000
     24 N14          0.3320    -1.3290    -0.7760 n          1 3FN      -0.362300
     25 N12         -1.9190    -0.8690    -0.6320 nb         1 3FN      -0.313000
     26 N13         -4.1520    -0.4640    -0.4820 nu         1 3FN      -0.908100
     27 H1          -6.3960    -1.8280     0.1750 hc         1 3FN       0.059200
     28 H1A         -6.6040    -0.9800    -1.3560 hc         1 3FN       0.059200
     29 H2          -8.6910    -0.8590    -0.0670 h1         1 3FN       0.049700
     30 H2A         -7.8310    -0.2240     1.3380 h1         1 3FN       0.049700
     31 H4          -6.9920     2.0620     1.1770 h1         1 3FN       0.049700
     32 H4A         -7.2980     2.9200    -0.3350 h1         1 3FN       0.049700
     33 H5          -5.6810     1.4960    -1.5310 hc         1 3FN       0.059200
     34 H5A         -4.9120     2.1890    -0.1030 hc         1 3FN       0.059200
     35 H24          7.4820    -0.1850     0.1580 ha         1 3FN       0.151000
     36 H6          -5.2670     0.1160     1.1540 h1         1 3FN       0.078700
     37 H17          1.0730     0.9010     2.3090 ha         1 3FN       0.205000
     38 H22          4.8000     2.4420    -1.9210 ha         1 3FN       0.136000
     39 H21          2.9130     1.5580    -0.6040 ha         1 3FN       0.127000
     40 H11         -1.4620     1.3660     2.3970 h4         1 3FN       0.027100
     41 HN13        -4.2120    -1.0360    -1.3100 hn         1 3FN       0.509000
     42 C18          0.0310    -2.1670    -1.9310 c3         1 3FN       0.081300
     43 F2           5.6160    -1.2460     1.6180 f          1 3FN      -0.157000
     44 H18          0.9570    -2.5590    -2.3320 h1         1 3FN       0.060367
     45 H18A        -0.6130    -2.9940    -1.6410 h1         1 3FN       0.060367
     46 H18B        -0.4730    -1.5820    -2.6960 h1         1 3FN       0.060367
@<TRIPOS>BOND
     1     1     2 1   
     2     1    10 1   
     3     1    27 1   
     4     1    28 1   
     5     2     6 1   
     6     2    29 1   
     7     2    30 1   
     8     3     4 1   
     9     3     6 1   
    10     3    31 1   
    11     3    32 1   
    12     4    10 1   
    13     4    33 1   
    14     4    34 1   
    15     5     8 ar  
    16     5    13 ar  
    17     5    35 1   
    18     7    18 1   
    19     7    23 2   
    20     7    24 1   
    21     8    19 ar  
    22     8    43 1   
    23     9    22 ar  
    24     9    25 ar  
    25     9    26 1   
    26    10    26 1   
    27    10    36 1   
    28    11    12 1   
    29    11    16 ar  
    30    11    17 ar  
    31    12    18 2   
    32    12    37 1   
    33    13    14 ar  
    34    13    20 1   
    35    14    15 ar  
    36    14    38 1   
    37    15    19 ar  
    38    15    39 1   
    39    16    24 1   
    40    16    25 ar  
    41    17    22 ar  
    42    17    40 1   
    43    18    21 1   
    44    19    21 1   
    45    24    42 1   
    46    26    41 1   
    47    42    44 1   
    48    42    45 1   
    49    42    46 1   
@<TRIPOS>SUBSTRUCTURE
     1 3FN         1 TEMP              0 ****  ****    0 ROOT
