@<TRIPOS>MOLECULE
3FO
   60    61     1     0     0
SMALL
No Charge or Current Charge


@<TRIPOS>ATOM
      1 C1          -2.5780    -1.6380     1.9710 ca         1 3FO      -0.098000
      2 C2          -2.5740    -2.9530     2.4680 ca         1 3FO      -0.097000
      3 C3          -2.5370    -4.0420     1.5800 ca         1 3FO      -0.088000
      4 C13         -4.7580     2.4600     0.1070 c3         1 3FO      -0.389100
      5 C4          -2.5050    -3.8120     0.1950 ca         1 3FO       0.119000
      6 C5          -2.5090    -2.4990    -0.3040 ca         1 3FO      -0.063000
      7 C6          -2.5450    -1.4020     0.5810 ca         1 3FO      -0.090300
      8 C7          -2.5340     0.0280     0.0390 c3         1 3FO       0.189800
      9 N8          -3.6690     0.2260    -0.9130 n7         1 3FO      -0.865300
     10 C9          -1.1430     0.3860    -0.5880 c          1 3FO       0.602100
     11 O11         -1.0330     0.9160    -1.6890 o          1 3FO      -0.606100
     12 S12         -5.1300     0.7740    -0.3390 s6         1 3FO       1.202100
     13 O14         -5.4340     0.0050     0.8690 o          1 3FO      -0.527000
     14 O15         -6.0460     0.7530    -1.4800 o          1 3FO      -0.527000
     15 Cl1         -2.4590    -5.1740    -0.9190 cl         1 3FO      -0.199000
     16 N10         -0.0420     0.0860     0.1910 ns         1 3FO      -0.478900
     17 C16          1.3420     0.5350    -0.0890 c3         1 3FO       0.031700
     18 C17          2.3660    -0.5810     0.2640 c          1 3FO       0.593100
     19 O19          2.0700    -1.5870     0.8990 o          1 3FO      -0.605100
     20 C20          1.6520     1.8550     0.6720 c3         1 3FO      -0.048100
     21 C21          0.5650     2.9140     0.5100 ca         1 3FO      -0.086300
     22 C22          0.5120     3.7050    -0.6540 ca         1 3FO      -0.101500
     23 C26         -0.4120     3.0910     1.5110 ca         1 3FO      -0.101500
     24 C23         -0.5100     4.6560    -0.8190 ca         1 3FO      -0.112500
     25 C25         -1.4340     4.0410     1.3460 ca         1 3FO      -0.112500
     26 C24         -1.4840     4.8240     0.1800 ca         1 3FO      -0.108000
     27 N18          3.6500    -0.3700    -0.1890 ns         1 3FO      -0.491900
     28 C27          4.7820    -1.2970     0.0350 c3         1 3FO       0.017000
     29 C28          6.0950    -0.7700    -0.5870 c          1 3FO       0.589100
     30 O30          6.1710     0.2940    -1.1900 o          1 3FO      -0.606100
     31 C32          9.2240    -0.1590    -0.1260 c2         1 3FO       0.394200
     32 N33          9.7400    -0.3320     1.0420 n2         1 3FO      -0.738100
     33 C31          8.5500    -1.2740    -0.9100 c3         1 3FO       0.040700
     34 N29          7.1920    -1.5860    -0.4150 ns         1 3FO      -0.499900
     35 H1          -2.6110    -0.8050     2.6700 ha         1 3FO       0.113000
     36 H2          -2.6010    -3.1290     3.5420 ha         1 3FO       0.121000
     37 H3          -2.5340    -5.0590     1.9620 ha         1 3FO       0.131000
     38 H4          -4.3930     2.9810    -0.7840 h1         1 3FO       0.101367
     39 H5          -5.6900     2.9090     0.4640 h1         1 3FO       0.101367
     40 H6          -4.0060     2.4500     0.9020 h1         1 3FO       0.101367
     41 H17         -2.4870    -2.3350    -1.3790 ha         1 3FO       0.144000
     42 H18         -2.6230     0.7170     0.8890 h1         1 3FO       0.065700
     43 H19         -3.4200     1.0050    -1.5240 hn         1 3FO       0.512000
     44 H20         -0.2150    -0.4190     1.0550 hn         1 3FO       0.345500
     45 H7           1.4410     0.7220    -1.1660 h1         1 3FO       0.096700
     46 H8           1.7860     1.6240     1.7360 hc         1 3FO       0.062200
     47 H9           2.6150     2.2540     0.3300 hc         1 3FO       0.062200
     48 H10          1.2550     3.5740    -1.4370 ha         1 3FO       0.112500
     49 H14         -0.3850     2.4850     2.4140 ha         1 3FO       0.112500
     50 H11         -0.5490     5.2610    -1.7220 ha         1 3FO       0.116500
     51 H13         -2.1870     4.1710     2.1200 ha         1 3FO       0.116500
     52 H12         -2.2760     5.5590     0.0510 ha         1 3FO       0.116000
     53 H21          3.8260     0.4820    -0.7130 hn         1 3FO       0.347500
     54 H15          4.9400    -1.4330     1.1130 h1         1 3FO       0.071200
     55 H16          4.5550    -2.2730    -0.4130 h1         1 3FO       0.071200
     56 H25          9.2610     0.8210    -0.5930 h4         1 3FO      -0.027200
     57 H26         10.1350     0.5630     1.3700 hn         1 3FO       0.382400
     58 H23          8.4880    -0.9820    -1.9660 h1         1 3FO       0.080700
     59 H24          9.1660    -2.1800    -0.8520 h1         1 3FO       0.080700
     60 H22          7.0500    -2.4440     0.1070 hn         1 3FO       0.323500
@<TRIPOS>BOND
     1     1     2 ar  
     2     1     7 ar  
     3     1    35 1   
     4     2     3 ar  
     5     2    36 1   
     6     3     5 ar  
     7     3    37 1   
     8     4    12 1   
     9     4    38 1   
    10     4    39 1   
    11     4    40 1   
    12     5     6 ar  
    13     5    15 1   
    14     6     7 ar  
    15     6    41 1   
    16     7     8 1   
    17     8     9 1   
    18     8    10 1   
    19     8    42 1   
    20     9    12 1   
    21     9    43 1   
    22    10    11 2   
    23    10    16 1   
    24    12    13 2   
    25    12    14 2   
    26    16    17 1   
    27    16    44 1   
    28    17    18 1   
    29    17    20 1   
    30    17    45 1   
    31    18    19 2   
    32    18    27 1   
    33    20    21 1   
    34    20    46 1   
    35    20    47 1   
    36    21    22 ar  
    37    21    23 ar  
    38    22    24 ar  
    39    22    48 1   
    40    23    25 ar  
    41    23    49 1   
    42    24    26 ar  
    43    24    50 1   
    44    25    26 ar  
    45    25    51 1   
    46    26    52 1   
    47    27    28 1   
    48    27    53 1   
    49    28    29 1   
    50    28    54 1   
    51    28    55 1   
    52    29    30 2   
    53    29    34 1   
    54    31    32 2   
    55    31    33 1   
    56    31    56 1   
    57    32    57 1   
    58    33    34 1   
    59    33    58 1   
    60    33    59 1   
    61    34    60 1   
@<TRIPOS>SUBSTRUCTURE
     1 3FO         1 TEMP              0 ****  ****    0 ROOT
