@<TRIPOS>MOLECULE
3FO
   60    61     1     0     0
SMALL
abcg2


@<TRIPOS>ATOM
      1 C1          -2.3760    -1.4030     1.9900 ca         1 3FO      -0.098000
      2 C2          -2.3510    -2.6430     2.6150 ca         1 3FO      -0.097000
      3 C3          -2.3860    -3.8070     1.8650 ca         1 3FO      -0.088000
      4 C13         -4.6370     2.4630    -0.6680 c3         1 3FO      -0.389100
      5 C4          -2.4460    -3.7060     0.4810 ca         1 3FO       0.119000
      6 C5          -2.4660    -2.4790    -0.1580 ca         1 3FO      -0.063000
      7 C6          -2.4280    -1.3170     0.6050 ca         1 3FO      -0.090300
      8 C7          -2.3920     0.0310    -0.0710 c3         1 3FO       0.189800
      9 N8          -3.3160     0.1190    -1.1820 n7         1 3FO      -0.865300
     10 C9          -0.9930     0.4110    -0.5930 c          1 3FO       0.602100
     11 O11         -0.8640     1.0000    -1.6510 o          1 3FO      -0.606100
     12 S12         -4.8290     0.7090    -0.9010 s6         1 3FO       1.202100
     13 O14         -5.2770     0.1280     0.3540 o          1 3FO      -0.527000
     14 O15         -5.5950     0.4900    -2.1150 o          1 3FO      -0.527000
     15 CL1         -2.4970    -5.1540    -0.4700 cl         1 3FO      -0.199000
     16 N10          0.0130     0.0930     0.2280 ns         1 3FO      -0.478900
     17 C16          1.3450     0.6200     0.0860 c3         1 3FO       0.031700
     18 C17          2.3470    -0.4770     0.4280 c          1 3FO       0.593100
     19 O19          2.0790    -1.3480     1.2420 o          1 3FO      -0.605100
     20 C20          1.5720     1.8180     1.0370 c3         1 3FO      -0.048100
     21 C21          0.4820     2.8420     0.8990 ca         1 3FO      -0.086300
     22 C22          0.5190     3.7920    -0.1190 ca         1 3FO      -0.101500
     23 C26         -0.6190     2.8200     1.7500 ca         1 3FO      -0.101500
     24 C23         -0.5210     4.6940    -0.2860 ca         1 3FO      -0.112500
     25 C25         -1.6650     3.7200     1.5860 ca         1 3FO      -0.112500
     26 C24         -1.6200     4.6580     0.5630 ca         1 3FO      -0.108000
     27 N18          3.5320    -0.3640    -0.1760 ns         1 3FO      -0.491900
     28 C27          4.6250    -1.2550     0.1000 c3         1 3FO       0.017000
     29 C28          5.8480    -0.8180    -0.6880 c          1 3FO       0.589100
     30 O30          5.7980     0.0780    -1.5160 o          1 3FO      -0.606100
     31 C32          9.0490    -0.2500    -0.3440 c2         1 3FO       0.394200
     32 N33         10.2660    -0.4560    -0.0800 n2         1 3FO      -0.738100
     33 C31          8.2260    -1.2800    -1.0630 c3         1 3FO       0.040700
     34 N29          6.9580    -1.5140    -0.4110 ns         1 3FO      -0.499900
     35 H1          -2.3630    -0.5000     2.5890 ha         1 3FO       0.113000
     36 H2          -2.3140    -2.7040     3.6940 ha         1 3FO       0.121000
     37 H3          -2.3720    -4.7740     2.3470 ha         1 3FO       0.131000
     38 H4          -4.2660     2.9070    -1.5890 h1         1 3FO       0.101367
     39 H5          -5.6100     2.8810    -0.4150 h1         1 3FO       0.101367
     40 H6          -3.9370     2.6510     0.1440 h1         1 3FO       0.101367
     41 H17         -2.5200    -2.4240    -1.2370 ha         1 3FO       0.144000
     42 H18         -2.6020     0.7960     0.6910 h1         1 3FO       0.065700
     43 H19         -2.8940     0.4830    -2.0340 hn         1 3FO       0.512000
     44 H20         -0.1740    -0.4440     1.0630 hn         1 3FO       0.345500
     45 H7           1.4770     0.9490    -0.9450 h1         1 3FO       0.096700
     46 H8           1.6100     1.4500     2.0640 hc         1 3FO       0.062200
     47 H9           2.5480     2.2550     0.8150 hc         1 3FO       0.062200
     48 H10          1.3700     3.8220    -0.7910 ha         1 3FO       0.112500
     49 H14         -0.6640     2.0960     2.5560 ha         1 3FO       0.112500
     50 H11         -0.4760     5.4260    -1.0830 ha         1 3FO       0.116500
     51 H13         -2.5110     3.6910     2.2610 ha         1 3FO       0.116500
     52 H12         -2.4320     5.3610     0.4320 ha         1 3FO       0.116000
     53 H21          3.6820     0.3440    -0.8800 hn         1 3FO       0.347500
     54 H15          4.8600    -1.2660     1.1680 h1         1 3FO       0.071200
     55 H16          4.3780    -2.2840    -0.1800 h1         1 3FO       0.071200
     56 H25          8.5210     0.6730    -0.0890 h4         1 3FO      -0.027200
     57 H26         10.6720     0.3530     0.3830 hn         1 3FO       0.382400
     58 H23          8.0440    -0.9450    -2.0860 h1         1 3FO       0.080700
     59 H24          8.7770    -2.2180    -1.1180 h1         1 3FO       0.080700
     60 H22          6.9340    -2.2020     0.3260 hn         1 3FO       0.323500
@<TRIPOS>BOND
     1     1     2 ar  
     2     1     7 ar  
     3     1    35 1   
     4     2     3 ar  
     5     2    36 1   
     6     3     5 ar  
     7     3    37 1   
     8     4    12 1   
     9     4    38 1   
    10     4    39 1   
    11     4    40 1   
    12     5     6 ar  
    13     5    15 1   
    14     6     7 ar  
    15     6    41 1   
    16     7     8 1   
    17     8     9 1   
    18     8    10 1   
    19     8    42 1   
    20     9    12 1   
    21     9    43 1   
    22    10    11 2   
    23    10    16 1   
    24    12    13 2   
    25    12    14 2   
    26    16    17 1   
    27    16    44 1   
    28    17    18 1   
    29    17    20 1   
    30    17    45 1   
    31    18    19 2   
    32    18    27 1   
    33    20    21 1   
    34    20    46 1   
    35    20    47 1   
    36    21    22 ar  
    37    21    23 ar  
    38    22    24 ar  
    39    22    48 1   
    40    23    25 ar  
    41    23    49 1   
    42    24    26 ar  
    43    24    50 1   
    44    25    26 ar  
    45    25    51 1   
    46    26    52 1   
    47    27    28 1   
    48    27    53 1   
    49    28    29 1   
    50    28    54 1   
    51    28    55 1   
    52    29    30 2   
    53    29    34 1   
    54    31    32 2   
    55    31    33 1   
    56    31    56 1   
    57    32    57 1   
    58    33    34 1   
    59    33    58 1   
    60    33    59 1   
    61    34    60 1   
@<TRIPOS>SUBSTRUCTURE
     1 3FO         1 TEMP              0 ****  ****    0 ROOT
