@<TRIPOS>MOLECULE
3FP
   56    58     1     0     0
SMALL
No Charge or Current Charge


@<TRIPOS>ATOM
      1 C1          -0.8780     0.1010    -3.2450 ca         1 3FP       0.410900
      2 N1           0.4080    -0.0480    -0.8250 nb         1 3FP      -0.267000
      3 C2          -1.6210    -0.1240    -2.0870 ca         1 3FP      -0.365000
      4 C7          -0.3640     0.4770    -8.5340 ca         1 3FP      -0.070000
      5 C6          -1.6040     0.9850    -8.1130 ca         1 3FP      -0.127000
      6 C5          -1.9850     0.8880    -6.7660 ca         1 3FP       0.127000
      7 C4          -1.1260     0.2940    -5.8090 ca         1 3FP       0.285000
      8 C3          -0.9260    -0.1860    -0.8800 ca         1 3FP       0.414900
      9 C11         -2.0590    -1.2060     2.5440 ca         1 3FP      -0.092500
     10 C10         -1.2980    -0.4240     1.6560 ca         1 3FP       0.255000
     11 C9           0.1080    -0.2290    -6.2500 ca         1 3FP      -0.075000
     12 C8           0.5000    -0.1460    -7.6070 ca         1 3FP      -0.182300
     13 C12         -1.7740    -1.2100     3.9220 ca         1 3FP      -0.153000
     14 C16          0.5530     0.3040     6.4160 c3         1 3FP       0.159600
     15 C14          0.0290     0.3770     3.5530 ca         1 3FP      -0.153000
     16 C13         -0.7300    -0.4240     4.4340 ca         1 3FP       0.134100
     17 C15         -0.2590     0.3770     2.1740 ca         1 3FP      -0.092500
     18 C            1.0340     0.1760    -1.9960 ca         1 3FP       0.196900
     19 N            0.4540     0.2640    -3.2090 nb         1 3FP      -0.280000
     20 N2          -1.5360     0.2050    -4.4600 nu         1 3FP      -0.933900
     21 N3          -1.6260    -0.4420     0.2910 nu         1 3FP      -0.932900
     22 O           -0.4950    -0.4660     5.7920 os         1 3FP      -0.329100
     23 C21          1.8550    -0.7130    -8.0480 c3         1 3FP       0.359300
     24 F2           1.9140    -0.9560    -9.3780 f          1 3FP      -0.112333
     25 F3           2.8610     0.1410    -7.7580 f          1 3FP      -0.112333
     26 F4           2.1390    -1.8830    -7.4300 f          1 3FP      -0.112333
     27 C17          0.5470     0.0190     7.9410 c3         1 3FP       0.172300
     28 C18          1.7370     0.6850     8.6800 c3         1 3FP       0.119800
     29 C19          1.4980    -0.5050    10.8550 c3         1 3FP       0.150600
     30 C20          2.4960     1.7340    10.7820 c3         1 3FP       0.150600
     31 N4           1.5270     0.8050    10.1550 n3         1 3FP      -0.736600
     32 O1          -0.6410     0.5130     8.5760 oh         1 3FP      -0.652000
     33 H2          -2.6990    -0.2450    -2.1240 ha         1 3FP       0.129000
     34 H7          -0.0850     0.5670    -9.5830 ha         1 3FP       0.138000
     35 H6          -2.2720     1.4540    -8.8310 ha         1 3FP       0.139000
     36 H11         -2.8710    -1.8220     2.1660 ha         1 3FP       0.124500
     37 H9           0.7640    -0.7200    -5.5400 ha         1 3FP       0.173000
     38 H12         -2.3650    -1.8240     4.5960 ha         1 3FP       0.124000
     39 H161         0.4030     1.3780     6.2440 h1         1 3FP       0.039200
     40 H162         1.5300     0.0200     6.0040 h1         1 3FP       0.039200
     41 H14          0.8370     1.0060     3.9150 ha         1 3FP       0.124000
     42 H15          0.3210     1.0190     1.5190 ha         1 3FP       0.124500
     43 H            2.1160     0.2980    -1.9590 h5         1 3FP       0.049100
     44 HA          -2.5380     0.3530    -4.3420 hn         1 3FP       0.509000
     45 H3          -2.5690    -0.7810     0.1040 hn         1 3FP       0.496000
     46 H17          0.6220    -1.0670     8.0900 h1         1 3FP       0.046700
     47 H181         1.8730     1.6880     8.2520 h1         1 3FP       0.044200
     48 H182         2.6550     0.1220     8.4640 h1         1 3FP       0.044200
     49 H191         1.3010    -0.3670    11.9270 h1         1 3FP       0.035700
     50 H192         0.7100    -1.1560    10.4550 h1         1 3FP       0.035700
     51 H193         2.4590    -1.0270    10.7490 h1         1 3FP       0.035700
     52 H201         2.4480     2.7240    10.3090 h1         1 3FP       0.035700
     53 H202         2.2770     1.8610    11.8500 h1         1 3FP       0.035700
     54 H203         3.5220     1.3550    10.6830 h1         1 3FP       0.035700
     55 H1          -0.2870     0.8100     9.4520 ho         1 3FP       0.469000
     56 F1          -3.1910     1.3830    -6.3910 f          1 3FP      -0.183000
@<TRIPOS>BOND
     1     1     3 ar  
     2     1    19 ar  
     3     1    20 1   
     4     2     8 ar  
     5     2    18 ar  
     6     3     8 ar  
     7     3    33 1   
     8     4     5 ar  
     9     4    12 ar  
    10     4    34 1   
    11     5     6 ar  
    12     5    35 1   
    13     6     7 ar  
    14     6    56 1   
    15     7    11 ar  
    16     7    20 1   
    17     8    21 1   
    18     9    10 ar  
    19     9    13 ar  
    20     9    36 1   
    21    10    17 ar  
    22    10    21 1   
    23    11    12 ar  
    24    11    37 1   
    25    12    23 1   
    26    13    16 ar  
    27    13    38 1   
    28    14    22 1   
    29    14    27 1   
    30    14    39 1   
    31    14    40 1   
    32    15    16 ar  
    33    15    17 ar  
    34    15    41 1   
    35    16    22 1   
    36    17    42 1   
    37    18    19 ar  
    38    18    43 1   
    39    20    44 1   
    40    21    45 1   
    41    23    24 1   
    42    23    25 1   
    43    23    26 1   
    44    27    28 1   
    45    27    32 1   
    46    27    46 1   
    47    28    31 1   
    48    28    47 1   
    49    28    48 1   
    50    29    31 1   
    51    29    49 1   
    52    29    50 1   
    53    29    51 1   
    54    30    31 1   
    55    30    52 1   
    56    30    53 1   
    57    30    54 1   
    58    32    55 1   
@<TRIPOS>SUBSTRUCTURE
     1 3FP         1 TEMP              0 ****  ****    0 ROOT
