@<TRIPOS>MOLECULE
3FP
   56    58     1     0     0
SMALL
abcg2


@<TRIPOS>ATOM
      1 C1          -1.0300     0.0970    -3.1350 ca         1 3FP       0.410900
      2 N1           0.1010     0.0430    -0.6610 nb         1 3FP      -0.267000
      3 C2          -1.8560     0.1210    -2.0180 ca         1 3FP      -0.365000
      4 C7          -0.1260    -0.0140    -8.3060 ca         1 3FP      -0.070000
      5 C6          -1.4780     0.1490    -8.0340 ca         1 3FP      -0.127000
      6 C5          -1.9010     0.1940    -6.7310 ca         1 3FP       0.127000
      7 C4          -1.0350     0.0810    -5.6350 ca         1 3FP       0.285000
      8 C3          -1.2340     0.0920    -0.7690 ca         1 3FP       0.414900
      9 C11         -2.4100    -0.6400     2.5930 ca         1 3FP      -0.092500
     10 C10         -1.5770     0.0300     1.6940 ca         1 3FP       0.255000
     11 C9           0.3180    -0.0800    -5.9250 ca         1 3FP      -0.075000
     12 C8           0.7570    -0.1290    -7.2450 ca         1 3FP      -0.182300
     13 C12         -2.1000    -0.7120     3.9360 ca         1 3FP      -0.153000
     14 C16          0.4490     0.3540     6.3000 c3         1 3FP       0.159600
     15 C14         -0.0990     0.5460     3.5350 ca         1 3FP      -0.153000
     16 C13         -0.9310    -0.1260     4.4230 ca         1 3FP       0.134100
     17 C15         -0.4240     0.6300     2.1850 ca         1 3FP      -0.092500
     18 C            0.7750     0.0250    -1.7910 ca         1 3FP       0.196900
     19 N            0.3010     0.0500    -3.0240 nb         1 3FP      -0.280000
     20 N2          -1.6040     0.1270    -4.3750 nu         1 3FP      -0.933900
     21 N3          -1.9890     0.1050     0.3550 nu         1 3FP      -0.932900
     22 O           -0.6970    -0.2620     5.7450 os         1 3FP      -0.329100
     23 C21          2.2270    -0.2790    -7.4830 c3         1 3FP       0.359300
     24 F2           2.5170    -0.5220    -8.7640 f          1 3FP      -0.112333
     25 F3           2.9010     0.8290    -7.1350 f          1 3FP      -0.112333
     26 F4           2.7520    -1.2820    -6.7660 f          1 3FP      -0.112333
     27 C17          0.4900     0.0330     7.7760 c3         1 3FP       0.172300
     28 C18          1.7960     0.5500     8.3830 c3         1 3FP       0.119800
     29 C19          1.9310    -0.8570    10.3380 c3         1 3FP       0.150600
     30 C20          2.6190     1.4300    10.4710 c3         1 3FP       0.150600
     31 N4           1.7240     0.4860     9.8320 n3         1 3FP      -0.736600
     32 O1          -0.6020     0.6300     8.4300 oh         1 3FP      -0.652000
     33 H2          -2.9340     0.1560    -2.1100 ha         1 3FP       0.129000
     34 H7           0.2050    -0.0510    -9.3330 ha         1 3FP       0.138000
     35 H6          -2.1990     0.2410    -8.8350 ha         1 3FP       0.139000
     36 H11         -3.3180    -1.1120     2.2360 ha         1 3FP       0.124500
     37 H9           1.0150    -0.1640    -5.1060 ha         1 3FP       0.173000
     38 H12         -2.7610    -1.2360     4.6150 ha         1 3FP       0.124000
     39 H161         0.4140     1.4410     6.1530 h1         1 3FP       0.039200
     40 H162         1.3630    -0.0210     5.8240 h1         1 3FP       0.039200
     41 H14          0.8120     1.0250     3.8670 ha         1 3FP       0.124000
     42 H15          0.2370     1.1710     1.5260 ha         1 3FP       0.124500
     43 H            1.8560    -0.0150    -1.7010 h5         1 3FP       0.049100
     44 HA          -2.6100     0.1780    -4.3620 hn         1 3FP       0.509000
     45 H3          -2.9830     0.0300     0.2080 hn         1 3FP       0.496000
     46 H17          0.4550    -1.0630     7.8810 h1         1 3FP       0.046700
     47 H181         1.9260     1.5970     8.0950 h1         1 3FP       0.044200
     48 H182         2.6520    -0.0060     7.9730 h1         1 3FP       0.044200
     49 H191         1.7820    -0.8740    11.4180 h1         1 3FP       0.035700
     50 H192         1.2170    -1.5540     9.9000 h1         1 3FP       0.035700
     51 H193         2.9420    -1.2370    10.1280 h1         1 3FP       0.035700
     52 H201         2.3970     2.4430    10.1380 h1         1 3FP       0.035700
     53 H202         2.4810     1.3940    11.5520 h1         1 3FP       0.035700
     54 H203         3.6800     1.2280    10.2620 h1         1 3FP       0.035700
     55 H1          -0.2850     0.7890     9.3340 ho         1 3FP       0.469000
     56 F1          -3.2110     0.3510    -6.4760 f          1 3FP      -0.183000
@<TRIPOS>BOND
     1     1     3 ar  
     2     1    19 ar  
     3     1    20 1   
     4     2     8 ar  
     5     2    18 ar  
     6     3     8 ar  
     7     3    33 1   
     8     4     5 ar  
     9     4    12 ar  
    10     4    34 1   
    11     5     6 ar  
    12     5    35 1   
    13     6     7 ar  
    14     6    56 1   
    15     7    11 ar  
    16     7    20 1   
    17     8    21 1   
    18     9    10 ar  
    19     9    13 ar  
    20     9    36 1   
    21    10    17 ar  
    22    10    21 1   
    23    11    12 ar  
    24    11    37 1   
    25    12    23 1   
    26    13    16 ar  
    27    13    38 1   
    28    14    22 1   
    29    14    27 1   
    30    14    39 1   
    31    14    40 1   
    32    15    16 ar  
    33    15    17 ar  
    34    15    41 1   
    35    16    22 1   
    36    17    42 1   
    37    18    19 ar  
    38    18    43 1   
    39    20    44 1   
    40    21    45 1   
    41    23    24 1   
    42    23    25 1   
    43    23    26 1   
    44    27    28 1   
    45    27    32 1   
    46    27    46 1   
    47    28    31 1   
    48    28    47 1   
    49    28    48 1   
    50    29    31 1   
    51    29    49 1   
    52    29    50 1   
    53    29    51 1   
    54    30    31 1   
    55    30    52 1   
    56    30    53 1   
    57    30    54 1   
    58    32    55 1   
@<TRIPOS>SUBSTRUCTURE
     1 3FP         1 TEMP              0 ****  ****    0 ROOT
