@<TRIPOS>MOLECULE
3FQ
   59    61     1     0     0
SMALL
No Charge or Current Charge


@<TRIPOS>ATOM
      1 C1          -2.5440    -0.7970    -1.0670 c6         1 3FQ       0.722600
      2 N1          -1.6990     1.0110    -2.9180 nu         1 3FQ      -0.818200
      3 C2          -1.1150    -0.5230    -1.3190 c2         1 3FQ      -0.470200
      4 C7          -6.4520     0.6750     1.9730 ca         1 3FQ      -0.092000
      5 C6          -5.3400     1.5310     2.0560 ca         1 3FQ      -0.123000
      6 C5          -4.1120     1.1450     1.4970 ca         1 3FQ       0.105000
      7 C4          -3.9800    -0.0980     0.8350 ca         1 3FQ       0.307000
      8 C3          -0.7650     0.3690    -2.2160 c2         1 3FQ       0.373000
      9 C11          1.7590     0.8680    -0.5180 ca         1 3FQ      -0.105000
     10 C10          1.6920     0.6260    -1.9030 ca         1 3FQ       0.229000
     11 C9          -5.0990    -0.9530     0.7700 ca         1 3FQ      -0.082000
     12 C8          -6.3400    -0.5810     1.3370 ca         1 3FQ      -0.178300
     13 C12          2.9840     0.7590     0.1640 ca         1 3FQ      -0.150500
     14 C16          6.5850    -0.0250    -0.4240 c3         1 3FQ       0.158600
     15 C14          4.0950     0.1770    -1.9200 ca         1 3FQ      -0.150500
     16 C13          4.1550     0.4130    -0.5290 ca         1 3FQ       0.138100
     17 C15          2.8660     0.2870    -2.6000 ca         1 3FQ      -0.105000
     18 C           -3.0450     0.7870    -2.7420 c2         1 3FQ       0.662100
     19 N           -3.4660    -0.0980    -1.9090 n2         1 3FQ      -0.710900
     20 N2          -2.7440    -0.4780     0.2830 nu         1 3FQ      -0.935200
     21 N3           0.4820     0.7390    -2.5920 nu         1 3FQ      -0.860000
     22 O            5.3280     0.3220     0.1920 os         1 3FQ      -0.325100
     23 C21         -7.5480    -1.5210     1.2380 c3         1 3FQ       0.356300
     24 F2          -7.1880    -2.8240     1.2890 f          1 3FQ      -0.116333
     25 F3          -8.4380    -1.3290     2.2400 f          1 3FQ      -0.116333
     26 F4          -8.2160    -1.3410     0.0770 f          1 3FQ      -0.116333
     27 C17          7.6930    -0.0330     0.6610 c3         1 3FQ       0.172300
     28 C18          9.1100    -0.2490     0.0700 c3         1 3FQ       0.119800
     29 C19         11.3460    -1.2240     0.4530 c3         1 3FQ       0.150100
     30 C20         10.4220     0.3350     2.1060 c3         1 3FQ       0.150100
     31 N4          10.1130    -0.6980     1.0840 n3         1 3FQ      -0.736600
     32 O1           7.4990    -1.0840     1.6190 oh         1 3FQ      -0.652000
     33 O1L         -2.8000    -2.1260    -1.2480 oh         1 3FQ      -0.644000
     34 HN1         -1.4450     1.8850    -3.3630 hn         1 3FQ       0.516000
     35 H2          -0.3870    -1.0970    -0.7580 ha         1 3FQ       0.210000
     36 H7          -7.3990     0.9940     2.4070 ha         1 3FQ       0.131000
     37 H6          -5.4300     2.4930     2.5540 ha         1 3FQ       0.131000
     38 H11          0.8610     1.1460     0.0270 ha         1 3FQ       0.122500
     39 H9          -4.9970    -1.9140     0.2750 ha         1 3FQ       0.154000
     40 H12          3.0270     0.9470     1.2340 ha         1 3FQ       0.128500
     41 H161         6.8460     0.7110    -1.1950 h1         1 3FQ       0.038700
     42 H162         6.5280    -1.0150    -0.8960 h1         1 3FQ       0.038700
     43 H14          4.9820    -0.0910    -2.4870 ha         1 3FQ       0.128500
     44 H15          2.8280     0.1020    -3.6700 ha         1 3FQ       0.122500
     45 H           -3.7040     1.3850    -3.3770 h5         1 3FQ       0.044800
     46 HA          -1.9900     0.1160     0.6030 hn         1 3FQ       0.488000
     47 H3           0.5910     0.8030    -3.6030 hn         1 3FQ       0.503000
     48 H17          7.6840     0.9400     1.1720 h1         1 3FQ       0.046700
     49 H181         9.4420     0.6790    -0.4180 h1         1 3FQ       0.044200
     50 H182         9.0280    -1.0100    -0.7180 h1         1 3FQ       0.044200
     51 H191        12.0360    -1.6130     1.2130 h1         1 3FQ       0.036367
     52 H192        11.1100    -2.0440    -0.2380 h1         1 3FQ       0.036367
     53 H193        11.8640    -0.4360    -0.1110 h1         1 3FQ       0.036367
     54 H201         9.5180     0.6500     2.6430 h1         1 3FQ       0.036367
     55 H202        11.1300    -0.0550     2.8490 h1         1 3FQ       0.036367
     56 H203        10.8710     1.2230     1.6410 h1         1 3FQ       0.036367
     57 H1           8.4350    -1.3480     1.8120 ho         1 3FQ       0.471000
     58 H1L         -3.5630    -2.0500    -1.8490 ho         1 3FQ       0.452000
     59 F1          -3.0520     1.9860     1.5960 f          1 3FQ      -0.190000
@<TRIPOS>BOND
     1     1     3 1   
     2     1    19 1   
     3     1    20 1   
     4     1    33 1   
     5     2     8 1   
     6     2    18 1   
     7     2    34 1   
     8     3     8 2   
     9     3    35 1   
    10     4     5 ar  
    11     4    12 ar  
    12     4    36 1   
    13     5     6 ar  
    14     5    37 1   
    15     6     7 ar  
    16     6    59 1   
    17     7    11 ar  
    18     7    20 1   
    19     8    21 1   
    20     9    10 ar  
    21     9    13 ar  
    22     9    38 1   
    23    10    17 ar  
    24    10    21 1   
    25    11    12 ar  
    26    11    39 1   
    27    12    23 1   
    28    13    16 ar  
    29    13    40 1   
    30    14    22 1   
    31    14    27 1   
    32    14    41 1   
    33    14    42 1   
    34    15    16 ar  
    35    15    17 ar  
    36    15    43 1   
    37    16    22 1   
    38    17    44 1   
    39    18    19 2   
    40    18    45 1   
    41    20    46 1   
    42    21    47 1   
    43    23    24 1   
    44    23    25 1   
    45    23    26 1   
    46    27    28 1   
    47    27    32 1   
    48    27    48 1   
    49    28    31 1   
    50    28    49 1   
    51    28    50 1   
    52    29    31 1   
    53    29    51 1   
    54    29    52 1   
    55    29    53 1   
    56    30    31 1   
    57    30    54 1   
    58    30    55 1   
    59    30    56 1   
    60    32    57 1   
    61    33    58 1   
@<TRIPOS>SUBSTRUCTURE
     1 3FQ         1 TEMP              0 ****  ****    0 ROOT
