@<TRIPOS>MOLECULE
3FQ
   59    61     1     0     0
SMALL
abcg2


@<TRIPOS>ATOM
      1 C1          -3.0060    -0.6050    -1.1540 c6         1 3FQ       0.722600
      2 N1          -0.5510     0.7400    -1.1310 nu         1 3FQ      -0.818200
      3 C2          -1.7050    -1.2800    -1.4520 c2         1 3FQ      -0.470200
      4 C7          -7.1380    -0.2590     2.0040 ca         1 3FQ      -0.092000
      5 C6          -6.2380    -1.1820     2.5180 ca         1 3FQ      -0.123000
      6 C5          -5.1090    -1.4960     1.8030 ca         1 3FQ       0.105000
      7 C4          -4.7980    -0.9350     0.5570 ca         1 3FQ       0.307000
      8 C3          -0.5470    -0.5940    -1.4760 c2         1 3FQ       0.373000
      9 C11          2.0300    -0.4080     0.0270 ca         1 3FQ      -0.105000
     10 C10          1.8980    -0.8040    -1.3050 ca         1 3FQ       0.229000
     11 C9          -5.7160    -0.0100     0.0570 ca         1 3FQ      -0.082000
     12 C8          -6.8610     0.3210     0.7750 ca         1 3FQ      -0.178300
     13 C12          3.2740    -0.1090     0.5530 ca         1 3FQ      -0.150500
     14 C16          6.7890    -0.0470    -0.3710 c3         1 3FQ       0.158600
     15 C14          4.3020    -0.6520    -1.5480 ca         1 3FQ      -0.150500
     16 C13          4.4240    -0.2290    -0.2270 ca         1 3FQ       0.138100
     17 C15          3.0470    -0.9170    -2.0790 ca         1 3FQ      -0.105000
     18 C           -1.7250     1.3380    -0.8040 c2         1 3FQ       0.662100
     19 N           -2.8690     0.7840    -0.7820 n2         1 3FQ      -0.710900
     20 N2          -3.6580    -1.3450    -0.0920 nu         1 3FQ      -0.935200
     21 N3           0.6560    -1.1150    -1.8850 nu         1 3FQ      -0.860000
     22 O            5.5930     0.0770     0.3740 os         1 3FQ      -0.325100
     23 C21         -7.8150     1.2920     0.1580 c3         1 3FQ       0.356300
     24 F2          -8.5000     0.7390    -0.8570 f          1 3FQ      -0.116333
     25 F3          -8.7210     1.7500     1.0290 f          1 3FQ      -0.116333
     26 F4          -7.1890     2.3630    -0.3520 f          1 3FQ      -0.116333
     27 C17          7.9470     0.3610     0.5090 c3         1 3FQ       0.172300
     28 C18          9.2380     0.3710    -0.3140 c3         1 3FQ       0.119800
     29 C19         11.5870    -0.0900    -0.0200 c3         1 3FQ       0.150100
     30 C20         10.6100     1.8130     1.0470 c3         1 3FQ       0.150100
     31 N4          10.3850     0.4610     0.5720 n3         1 3FQ      -0.736600
     32 O1           8.0810    -0.5410     1.5790 oh         1 3FQ      -0.652000
     33 O1L         -3.8910    -0.6890    -2.2520 oh         1 3FQ      -0.644000
     34 HN1          0.2800     1.3030    -1.2180 hn         1 3FQ       0.516000
     35 H2          -1.7140    -2.3360    -1.6900 ha         1 3FQ       0.210000
     36 H7          -8.0240    -0.0090     2.5690 ha         1 3FQ       0.131000
     37 H6          -6.4140    -1.6530     3.4770 ha         1 3FQ       0.131000
     38 H11          1.1630    -0.3420     0.6710 ha         1 3FQ       0.122500
     39 H9          -5.5220     0.4530    -0.8980 ha         1 3FQ       0.154000
     40 H12          3.3600     0.2040     1.5860 ha         1 3FQ       0.128500
     41 H161         6.7630     0.6020    -1.2550 h1         1 3FQ       0.038700
     42 H162         6.9270    -1.0800    -0.7150 h1         1 3FQ       0.038700
     43 H14          5.1660    -0.7660    -2.1880 ha         1 3FQ       0.128500
     44 H15          2.9660    -1.2210    -3.1150 ha         1 3FQ       0.122500
     45 H           -1.6320     2.3880    -0.5440 h5         1 3FQ       0.044800
     46 HA          -3.0050    -1.8590     0.4780 hn         1 3FQ       0.488000
     47 H3           0.5940    -2.0080    -2.3500 hn         1 3FQ       0.503000
     48 H17          7.7470     1.3790     0.8800 h1         1 3FQ       0.046700
     49 H181         9.2100     1.1800    -1.0600 h1         1 3FQ       0.044200
     50 H182         9.3090    -0.5710    -0.8660 h1         1 3FQ       0.044200
     51 H191        12.3980    -0.0800     0.7090 h1         1 3FQ       0.036367
     52 H192        11.4190    -1.1250    -0.3180 h1         1 3FQ       0.036367
     53 H193        11.9230     0.4680    -0.9050 h1         1 3FQ       0.036367
     54 H201         9.7160     2.2130     1.5250 h1         1 3FQ       0.036367
     55 H202        11.4080     1.8180     1.7900 h1         1 3FQ       0.036367
     56 H203        10.8940     2.5020     0.2380 h1         1 3FQ       0.036367
     57 H1           9.0300    -0.5210     1.7890 ho         1 3FQ       0.471000
     58 H1L         -3.4950    -0.2030    -2.9840 ho         1 3FQ       0.452000
     59 F1          -4.2400    -2.3890     2.3160 f          1 3FQ      -0.190000
@<TRIPOS>BOND
     1     1     3 1   
     2     1    19 1   
     3     1    20 1   
     4     1    33 1   
     5     2     8 1   
     6     2    18 1   
     7     2    34 1   
     8     3     8 2   
     9     3    35 1   
    10     4     5 ar  
    11     4    12 ar  
    12     4    36 1   
    13     5     6 ar  
    14     5    37 1   
    15     6     7 ar  
    16     6    59 1   
    17     7    11 ar  
    18     7    20 1   
    19     8    21 1   
    20     9    10 ar  
    21     9    13 ar  
    22     9    38 1   
    23    10    17 ar  
    24    10    21 1   
    25    11    12 ar  
    26    11    39 1   
    27    12    23 1   
    28    13    16 ar  
    29    13    40 1   
    30    14    22 1   
    31    14    27 1   
    32    14    41 1   
    33    14    42 1   
    34    15    16 ar  
    35    15    17 ar  
    36    15    43 1   
    37    16    22 1   
    38    17    44 1   
    39    18    19 2   
    40    18    45 1   
    41    20    46 1   
    42    21    47 1   
    43    23    24 1   
    44    23    25 1   
    45    23    26 1   
    46    27    28 1   
    47    27    32 1   
    48    27    48 1   
    49    28    31 1   
    50    28    49 1   
    51    28    50 1   
    52    29    31 1   
    53    29    51 1   
    54    29    52 1   
    55    29    53 1   
    56    30    31 1   
    57    30    54 1   
    58    30    55 1   
    59    30    56 1   
    60    32    57 1   
    61    33    58 1   
@<TRIPOS>SUBSTRUCTURE
     1 3FQ         1 TEMP              0 ****  ****    0 ROOT
