@<TRIPOS>MOLECULE
3FR
   59    63     1     0     0
SMALL
No Charge or Current Charge


@<TRIPOS>ATOM
      1 C31          6.3830    -1.1010    -2.8360 ca         1 3FR      -0.110000
      2 C30          5.0620    -0.9060    -3.2620 ca         1 3FR      -0.094000
      3 C28          4.3350    -0.5610    -0.9350 cp         1 3FR       0.005000
      4 C24         -4.1360    -1.1600     1.4800 c3         1 3FR      -0.117100
      5 C23          2.3570     0.7870    -0.1220 ca         1 3FR      -0.087000
      6 C22          3.1880    -0.3520    -0.0000 cp         1 3FR      -0.009000
      7 C17         -0.1600     4.1590     0.5190 cc         1 3FR       0.403900
      8 C20          1.7800    -1.1160     1.8540 ca         1 3FR       0.136000
      9 C12         -1.3250     3.3470     0.2920 ca         1 3FR      -0.348900
     10 C13         -2.6600     3.6620     0.0420 ca         1 3FR       0.467900
     11 C11         -0.9030     2.0670     0.3450 ca         1 3FR       0.055800
     12 C10         -1.8050     1.0240     0.1420 ca         1 3FR      -0.283000
     13 C9          -3.1350     1.4090    -0.0920 ca         1 3FR       0.646900
     14 C7          -4.1860    -0.9010    -0.0410 c3         1 3FR       0.287800
     15 C4          -5.2840    -2.3830    -1.7950 ca         1 3FR      -0.096000
     16 C5          -5.4280    -1.5070    -0.6980 ca         1 3FR      -0.097300
     17 C6          -6.7260    -1.2000    -0.2330 ca         1 3FR      -0.096000
     18 C3          -6.4150    -2.9480    -2.4100 ca         1 3FR      -0.110000
     19 C2          -7.7010    -2.6400    -1.9380 ca         1 3FR      -0.102000
     20 C1          -7.8560    -1.7650    -0.8500 ca         1 3FR      -0.110000
     21 O36          5.4410     0.1540     1.7190 o          1 3FR      -0.580100
     22 N35          7.0740    -1.3080     1.4130 nt         1 3FR      -0.609000
     23 C33          5.6930    -0.7380    -0.5200 ca         1 3FR      -0.137600
     24 C32          6.7010    -1.0200    -1.4720 ca         1 3FR      -0.092000
     25 C29          4.0540    -0.6410    -2.3210 ca         1 3FR      -0.103000
     26 C21          2.8720    -1.3090     0.9940 ca         1 3FR      -0.098000
     27 Cl           1.4120    -2.3140     3.0880 cl         1 3FR      -0.201000
     28 C19          0.9750     0.0260     1.7300 ca         1 3FR      -0.126000
     29 C18          1.2570     0.9820     0.7350 ca         1 3FR       0.052800
     30 N15          0.4510     2.1120     0.5950 na         1 3FR       0.151800
     31 N16          0.9410     3.4130     0.7040 nd         1 3FR      -0.517100
     32 N14         -3.5710     2.6750    -0.1510 nb         1 3FR      -0.769000
     33 H31          7.1640    -1.3080    -3.5650 ha         1 3FR       0.118000
     34 H30          4.8160    -0.9680    -4.3200 ha         1 3FR       0.118000
     35 H26         -0.8130     6.0370     1.3260 hc         1 3FR       0.053367
     36 H26A         0.8640     6.0410     0.7480 hc         1 3FR       0.053367
     37 H26B        -0.4740     6.0650    -0.4170 hc         1 3FR       0.053367
     38 H24A        -3.1910    -0.8050     1.9060 hc         1 3FR       0.046367
     39 H24B        -4.9560    -0.6530     2.0000 hc         1 3FR       0.046367
     40 H23          2.5750     1.5260    -0.8890 ha         1 3FR       0.145000
     41 H13         -3.0110     4.6920    -0.0080 h4         1 3FR       0.021100
     42 H10         -1.4990    -0.0160     0.1610 ha         1 3FR       0.134000
     43 H7          -3.3020    -1.3750    -0.4910 h1         1 3FR       0.061700
     44 H4          -4.2940    -2.6290    -2.1730 ha         1 3FR       0.113000
     45 H6          -6.8640    -0.5210     0.6050 ha         1 3FR       0.113000
     46 H3          -6.2940    -3.6230    -3.2540 ha         1 3FR       0.115000
     47 H2          -8.5760    -3.0770    -2.4140 ha         1 3FR       0.114000
     48 H1          -8.8520    -1.5240    -0.4840 ha         1 3FR       0.115000
     49 HN35         7.3380    -1.2260     2.3830 hn         1 3FR       0.315500
     50 HN3A         7.5670    -1.9360     0.7960 hn         1 3FR       0.315500
     51 H32          7.7370    -1.1480    -1.1650 ha         1 3FR       0.118000
     52 H29          3.0300    -0.5150    -2.6670 ha         1 3FR       0.122000
     53 H21          3.4800    -2.2030     1.0960 ha         1 3FR       0.129000
     54 H19          0.1320     0.1670     2.4010 ha         1 3FR       0.141000
     55 C34          6.0230    -0.5950     0.9530 c          1 3FR       0.612700
     56 N8          -4.1520     0.5340    -0.3150 nu         1 3FR      -0.926100
     57 C26         -0.1430     5.6590     0.5460 c3         1 3FR      -0.107400
     58 H24         -4.2120    -2.2340     1.6820 hc         1 3FR       0.046367
     59 HN8         -5.0360     1.0070    -0.4670 hn         1 3FR       0.500000
@<TRIPOS>BOND
     1     1     2 ar  
     2     1    24 ar  
     3     1    33 1   
     4     2    25 ar  
     5     2    34 1   
     6     3     6 1   
     7     3    23 ar  
     8     3    25 ar  
     9     4    14 1   
    10     4    38 1   
    11     4    39 1   
    12     4    58 1   
    13     5     6 ar  
    14     5    29 ar  
    15     5    40 1   
    16     6    26 ar  
    17     7     9 1   
    18     7    31 2   
    19     7    57 1   
    20     8    26 ar  
    21     8    27 1   
    22     8    28 ar  
    23     9    10 ar  
    24     9    11 ar  
    25    10    32 ar  
    26    10    41 1   
    27    11    12 ar  
    28    11    30 1   
    29    12    13 ar  
    30    12    42 1   
    31    13    32 ar  
    32    13    56 1   
    33    14    16 1   
    34    14    43 1   
    35    14    56 1   
    36    15    16 ar  
    37    15    18 ar  
    38    15    44 1   
    39    16    17 ar  
    40    17    20 ar  
    41    17    45 1   
    42    18    19 ar  
    43    18    46 1   
    44    19    20 ar  
    45    19    47 1   
    46    20    48 1   
    47    21    55 2   
    48    22    49 1   
    49    22    50 1   
    50    22    55 1   
    51    23    24 ar  
    52    23    55 1   
    53    24    51 1   
    54    25    52 1   
    55    26    53 1   
    56    28    29 ar  
    57    28    54 1   
    58    29    30 1   
    59    30    31 1   
    60    35    57 1   
    61    36    57 1   
    62    37    57 1   
    63    56    59 1   
@<TRIPOS>SUBSTRUCTURE
     1 3FR         1 TEMP              0 ****  ****    0 ROOT
