@<TRIPOS>MOLECULE
3FR
   59    63     1     0     0
SMALL
bcc


@<TRIPOS>ATOM
      1 C31          6.9670    -0.3810    -2.3590 ca         1 3FR      -0.128000
      2 C30          5.7920    -0.0130    -2.9960 ca         1 3FR      -0.112000
      3 C28          4.5650    -0.2910    -0.9280 cp         1 3FR       0.005000
      4 C24         -4.1180    -1.1550     1.6470 c3         1 3FR      -0.117100
      5 C23          2.4230     0.8150    -0.3260 ca         1 3FR      -0.105000
      6 C22          3.2640    -0.2850    -0.2240 cp         1 3FR      -0.009000
      7 C17         -0.0930     4.0210     0.0410 cc         1 3FR       0.403900
      8 C20          1.6220    -1.3890     1.1220 ca         1 3FR       0.044400
      9 C12         -1.3410     3.3280     0.0270 ca         1 3FR      -0.414200
     10 C13         -2.6880     3.6640    -0.0700 ca         1 3FR       0.533200
     11 C11         -1.0120     1.9680     0.1210 ca         1 3FR       0.055800
     12 C10         -1.9930     0.9850     0.0850 ca         1 3FR      -0.366300
     13 C9          -3.3100     1.4440    -0.0190 ca         1 3FR       0.712200
     14 C7          -4.3040    -0.8260     0.1640 c3         1 3FR       0.287800
     15 C4          -5.4260    -2.3610    -1.4890 ca         1 3FR      -0.114000
     16 C5          -5.5360    -1.4860    -0.4130 ca         1 3FR      -0.097300
     17 C6          -6.8000    -1.2300     0.1150 ca         1 3FR      -0.114000
     18 C3          -6.5510    -2.9750    -2.0250 ca         1 3FR      -0.128000
     19 C2          -7.8060    -2.7130    -1.4920 ca         1 3FR      -0.120000
     20 C1          -7.9270    -1.8360    -0.4210 ca         1 3FR      -0.128000
     21 O36          5.3650    -0.0420     1.9730 o          1 3FR      -0.580100
     22 N35          6.3720    -2.0260     1.5750 nt         1 3FR      -0.676000
     23 C33          5.7550    -0.6540    -0.2880 ca         1 3FR      -0.137600
     24 C32          6.9440    -0.7050    -1.0100 ca         1 3FR      -0.110000
     25 C29          4.6020     0.0240    -2.2850 ca         1 3FR      -0.121000
     26 C21          2.8510    -1.4090     0.4910 ca         1 3FR      -0.116000
     27 CL           1.1150    -2.7710     2.0330 cl         1 3FR      -0.109400
     28 C19          0.7830    -0.2890     1.0590 ca         1 3FR      -0.144000
     29 C18          1.1850     0.8090     0.3080 ca         1 3FR       0.052800
     30 N15          0.3460     1.9250     0.2020 na         1 3FR       0.151800
     31 N16          0.8890     3.1730     0.1390 nd         1 3FR      -0.517100
     32 N14         -3.6370     2.7580    -0.0840 nb         1 3FR      -0.769000
     33 H31          7.9000    -0.4120    -2.9060 ha         1 3FR       0.136000
     34 H30          5.7970     0.2350    -4.0490 ha         1 3FR       0.136000
     35 H26         -0.3320     5.9970     0.8120 hc         1 3FR       0.053367
     36 H26A         1.1910     5.7220    -0.0400 hc         1 3FR       0.053367
     37 H26B        -0.3190     5.9010    -0.9420 hc         1 3FR       0.053367
     38 H24A        -3.2160    -0.6880     2.0430 hc         1 3FR       0.046367
     39 H24B        -4.9620    -0.8000     2.2390 hc         1 3FR       0.046367
     40 H23          2.7340     1.6850    -0.8890 ha         1 3FR       0.163000
     41 H13         -3.0020     4.7010    -0.1400 h4         1 3FR       0.021100
     42 H10         -1.7610    -0.0690     0.1140 ha         1 3FR       0.152000
     43 H7          -3.4450    -1.2230    -0.3840 h1         1 3FR       0.061700
     44 H4          -4.4500    -2.5670    -1.9130 ha         1 3FR       0.131000
     45 H6          -6.9150    -0.5540     0.9540 ha         1 3FR       0.131000
     46 H3          -6.4470    -3.6560    -2.8600 ha         1 3FR       0.133000
     47 H2          -8.6840    -3.1920    -1.9060 ha         1 3FR       0.132000
     48 H1          -8.9020    -1.6280     0.0010 ha         1 3FR       0.133000
     49 HN35         6.4670    -2.2510     2.5530 hn         1 3FR       0.315500
     50 HN3A         6.6530    -2.7250     0.9090 hn         1 3FR       0.315500
     51 H32          7.8660    -0.9730    -0.5100 ha         1 3FR       0.136000
     52 H29          3.6820     0.2810    -2.7940 ha         1 3FR       0.140000
     53 H21          3.4760    -2.2900     0.5450 ha         1 3FR       0.147000
     54 H19         -0.1460    -0.2800     1.6110 ha         1 3FR       0.159000
     55 C34          5.7990    -0.8770     1.1950 c          1 3FR       0.679700
     56 N8          -4.3690     0.6010    -0.0910 nu         1 3FR      -0.870900
     57 C26          0.1290     5.4890    -0.0360 c3         1 3FR      -0.107400
     58 H24         -4.0290    -2.2320     1.7890 hc         1 3FR       0.046367
     59 HN8         -5.2720     1.0460    -0.0310 hn         1 3FR       0.444800
@<TRIPOS>BOND
     1     1     2 ar  
     2     1    24 ar  
     3     1    33 1   
     4     2    25 ar  
     5     2    34 1   
     6     3     6 1   
     7     3    23 ar  
     8     3    25 ar  
     9     4    14 1   
    10     4    38 1   
    11     4    39 1   
    12     4    58 1   
    13     5     6 ar  
    14     5    29 ar  
    15     5    40 1   
    16     6    26 ar  
    17     7     9 1   
    18     7    31 2   
    19     7    57 1   
    20     8    26 ar  
    21     8    27 1   
    22     8    28 ar  
    23     9    10 ar  
    24     9    11 ar  
    25    10    32 ar  
    26    10    41 1   
    27    11    12 ar  
    28    11    30 1   
    29    12    13 ar  
    30    12    42 1   
    31    13    32 ar  
    32    13    56 1   
    33    14    16 1   
    34    14    43 1   
    35    14    56 1   
    36    15    16 ar  
    37    15    18 ar  
    38    15    44 1   
    39    16    17 ar  
    40    17    20 ar  
    41    17    45 1   
    42    18    19 ar  
    43    18    46 1   
    44    19    20 ar  
    45    19    47 1   
    46    20    48 1   
    47    21    55 2   
    48    22    49 1   
    49    22    50 1   
    50    22    55 1   
    51    23    24 ar  
    52    23    55 1   
    53    24    51 1   
    54    25    52 1   
    55    26    53 1   
    56    28    29 ar  
    57    28    54 1   
    58    29    30 1   
    59    30    31 1   
    60    35    57 1   
    61    36    57 1   
    62    37    57 1   
    63    56    59 1   
@<TRIPOS>SUBSTRUCTURE
     1 3FR         1 TEMP              0 ****  ****    0 ROOT
