@<TRIPOS>MOLECULE
3FS
   46    46     1     0     0
SMALL
No Charge or Current Charge


@<TRIPOS>ATOM
      1 C12          1.3200     1.0690     0.7510 c          1 3FS       0.600100
      2 C13          2.5100     0.8870     1.6960 c3         1 3FS      -0.115100
      3 C15          3.5990     0.0560     1.0230 ca         1 3FS      -0.051300
      4 C16          4.8310     0.6400     0.6680 ca         1 3FS      -0.086500
      5 C17          5.8240    -0.1290     0.0380 ca         1 3FS       0.126000
      6 C18          5.5960    -1.4840    -0.2450 ca         1 3FS      -0.094000
      7 C19          4.3710    -2.0710     0.1050 ca         1 3FS       0.126000
      8 C20          3.3760    -1.3070     0.7380 ca         1 3FS      -0.086500
      9 O14          1.3390     1.8530    -0.1870 o          1 3FS      -0.589100
     10 Cl1          4.0780    -3.7680    -0.2510 cl         1 3FS      -0.194500
     11 Cl2          7.3580     0.6120    -0.4020 cl         1 3FS      -0.194500
     12 N9           0.2330     0.2680     1.0210 ns         1 3FS      -0.482900
     13 C8          -0.9720     0.1410     0.1600 c3         1 3FS      -0.002300
     14 C6          -2.2490     0.0040     1.0310 c          1 3FS       0.581100
     15 O7          -2.2240    -0.2930     2.2190 o          1 3FS      -0.616100
     16 C10         -0.8490    -1.0490    -0.8410 c3         1 3FS       0.172300
     17 O26         -0.4780    -2.2550    -0.1530 oh         1 3FS      -0.664000
     18 C11          0.1860    -0.7960    -1.9570 c3         1 3FS      -0.089100
     19 N5          -3.4380     0.2450     0.3770 ns         1 3FS      -0.485900
     20 C4          -4.7740     0.1720     1.0120 c3         1 3FS       0.018000
     21 C2          -5.9080     0.4960     0.0130 c          1 3FS       0.589100
     22 O3          -5.7060     0.7760    -1.1620 o          1 3FS      -0.606100
     23 C24         -8.7490    -0.4170    -1.2040 c2         1 3FS       0.393200
     24 N25         -9.2700    -1.5340    -0.8340 n2         1 3FS      -0.738100
     25 C23         -8.4140     0.7060    -0.2340 c3         1 3FS       0.038700
     26 N1          -7.1810     0.4490     0.5390 ns         1 3FS      -0.499900
     27 H4           2.9000     1.8780     1.9570 hc         1 3FS       0.072200
     28 H5           2.1870     0.3750     2.6100 hc         1 3FS       0.072200
     29 H6           5.0220     1.6900     0.8760 ha         1 3FS       0.133500
     30 H7           6.3650    -2.0760    -0.7340 ha         1 3FS       0.144000
     31 H8           2.4310    -1.7760     1.0000 ha         1 3FS       0.133500
     32 H17          0.3010    -0.3390     1.8300 hn         1 3FS       0.332500
     33 H16         -1.0950     1.0670    -0.4150 h1         1 3FS       0.086700
     34 H18         -1.8210    -1.1880    -1.3340 h1         1 3FS       0.040700
     35 H20         -1.2630    -2.5650     0.3490 ho         1 3FS       0.461000
     36 H1           1.1990    -0.7160    -1.5480 hc         1 3FS       0.050033
     37 H2           0.1760    -1.6200    -2.6810 hc         1 3FS       0.050033
     38 H3          -0.0450     0.1310    -2.4950 hc         1 3FS       0.050033
     39 H15         -3.3900     0.5020    -0.6050 hn         1 3FS       0.347500
     40 H13         -4.9390    -0.8380     1.4080 h1         1 3FS       0.069200
     41 H14         -4.8280     0.8880     1.8410 h1         1 3FS       0.069200
     42 H11         -8.5310    -0.2440    -2.2540 h4         1 3FS      -0.029200
     43 H19         -9.4040    -2.1340    -1.6630 hn         1 3FS       0.381400
     44 H9          -8.2950     1.6420    -0.7960 h1         1 3FS       0.081700
     45 H10         -9.2500     0.8420     0.4630 h1         1 3FS       0.081700
     46 H12         -7.2650     0.1970     1.5190 hn         1 3FS       0.322500
@<TRIPOS>BOND
     1     1     2 1   
     2     1     9 2   
     3     1    12 1   
     4     2     3 1   
     5     2    27 1   
     6     2    28 1   
     7     3     4 ar  
     8     3     8 ar  
     9     4     5 ar  
    10     4    29 1   
    11     5     6 ar  
    12     5    11 1   
    13     6     7 ar  
    14     6    30 1   
    15     7     8 ar  
    16     7    10 1   
    17     8    31 1   
    18    12    13 1   
    19    12    32 1   
    20    13    14 1   
    21    13    16 1   
    22    13    33 1   
    23    14    15 2   
    24    14    19 1   
    25    16    17 1   
    26    16    18 1   
    27    16    34 1   
    28    17    35 1   
    29    18    36 1   
    30    18    37 1   
    31    18    38 1   
    32    19    20 1   
    33    19    39 1   
    34    20    21 1   
    35    20    40 1   
    36    20    41 1   
    37    21    22 2   
    38    21    26 1   
    39    23    24 2   
    40    23    25 1   
    41    23    42 1   
    42    24    43 1   
    43    25    26 1   
    44    25    44 1   
    45    25    45 1   
    46    26    46 1   
@<TRIPOS>SUBSTRUCTURE
     1 3FS         1 TEMP              0 ****  ****    0 ROOT
