@<TRIPOS>MOLECULE
3FS
   46    46     1     0     0
SMALL
abcg2


@<TRIPOS>ATOM
      1 C12          0.9780    -0.6550     0.4610 c          1 3FS       0.600100
      2 C13          2.2870    -0.6240     1.2320 c3         1 3FS      -0.115100
      3 C15          3.2420     0.3870     0.6750 ca         1 3FS      -0.051300
      4 C16          3.1500     1.7210     1.0560 ca         1 3FS      -0.086500
      5 C17          4.0260     2.6470     0.5170 ca         1 3FS       0.126000
      6 C18          4.9980     2.2840    -0.4030 ca         1 3FS      -0.094000
      7 C19          5.0700     0.9510    -0.7700 ca         1 3FS       0.126000
      8 C20          4.2090     0.0010    -0.2450 ca         1 3FS      -0.086500
      9 O14          0.5630     0.3020    -0.1720 o          1 3FS      -0.589100
     10 CL1          6.2730     0.4630    -1.9150 cl         1 3FS      -0.194500
     11 CL2          3.9150     4.3040     1.0030 cl         1 3FS      -0.194500
     12 N9           0.3030    -1.8140     0.5430 ns         1 3FS      -0.482900
     13 C8          -1.0360    -1.9310     0.0360 c3         1 3FS      -0.002300
     14 C6          -1.9860    -1.0090     0.7990 c          1 3FS       0.581100
     15 O7          -1.8610    -0.8030     1.9990 o          1 3FS      -0.616100
     16 C10         -1.5130    -3.3930     0.1580 c3         1 3FS       0.172300
     17 O26         -1.3270    -3.8880     1.4650 oh         1 3FS      -0.664000
     18 C11         -0.7600    -4.3040    -0.7940 c3         1 3FS      -0.089100
     19 N5          -2.9840    -0.5070     0.0680 ns         1 3FS      -0.485900
     20 C4          -4.0170     0.3160     0.6320 c3         1 3FS       0.018000
     21 C2          -4.9800     0.7480    -0.4610 c          1 3FS       0.589100
     22 O3          -4.9140     0.2980    -1.5950 o          1 3FS      -0.606100
     23 C24         -8.2010     1.3460    -0.7880 c2         1 3FS       0.393200
     24 N25         -9.3180     1.9070    -0.6160 n2         1 3FS      -0.738100
     25 C23         -6.9400     2.1490    -0.9240 c3         1 3FS       0.038700
     26 N1          -5.8890     1.6500    -0.0680 ns         1 3FS      -0.499900
     27 H4           2.0410    -0.3790     2.2690 hc         1 3FS       0.072200
     28 H5           2.7410    -1.6160     1.2500 hc         1 3FS       0.072200
     29 H6           2.4060     2.0310     1.7790 ha         1 3FS       0.133500
     30 H7           5.6750     3.0180    -0.8170 ha         1 3FS       0.144000
     31 H8           4.2900    -1.0350    -0.5480 ha         1 3FS       0.133500
     32 H17          0.6240    -2.5200     1.1880 hn         1 3FS       0.332500
     33 H16         -1.0520    -1.6650    -1.0240 h1         1 3FS       0.086700
     34 H18         -2.5750    -3.4050    -0.1200 h1         1 3FS       0.040700
     35 H20         -1.8650    -3.3800     2.0810 ho         1 3FS       0.461000
     36 H1           0.3140    -4.2950    -0.6040 hc         1 3FS       0.050033
     37 H2          -1.1160    -5.3300    -0.6990 hc         1 3FS       0.050033
     38 H3          -0.9250    -3.9910    -1.8250 hc         1 3FS       0.050033
     39 H15         -3.0390    -0.6970    -0.9220 hn         1 3FS       0.347500
     40 H13         -4.5800    -0.2250     1.3990 h1         1 3FS       0.069200
     41 H14         -3.5950     1.2010     1.1180 h1         1 3FS       0.069200
     42 H11         -8.0700     0.2620    -0.8590 h4         1 3FS      -0.029200
     43 H19        -10.0620     1.2170    -0.5680 hn         1 3FS       0.381400
     44 H9          -6.5990     2.1120    -1.9600 h1         1 3FS       0.081700
     45 H10         -7.1400     3.1920    -0.6790 h1         1 3FS       0.081700
     46 H12         -5.8960     1.9450     0.8960 hn         1 3FS       0.322500
@<TRIPOS>BOND
     1     1     2 1   
     2     1     9 2   
     3     1    12 1   
     4     2     3 1   
     5     2    27 1   
     6     2    28 1   
     7     3     4 ar  
     8     3     8 ar  
     9     4     5 ar  
    10     4    29 1   
    11     5     6 ar  
    12     5    11 1   
    13     6     7 ar  
    14     6    30 1   
    15     7     8 ar  
    16     7    10 1   
    17     8    31 1   
    18    12    13 1   
    19    12    32 1   
    20    13    14 1   
    21    13    16 1   
    22    13    33 1   
    23    14    15 2   
    24    14    19 1   
    25    16    17 1   
    26    16    18 1   
    27    16    34 1   
    28    17    35 1   
    29    18    36 1   
    30    18    37 1   
    31    18    38 1   
    32    19    20 1   
    33    19    39 1   
    34    20    21 1   
    35    20    40 1   
    36    20    41 1   
    37    21    22 2   
    38    21    26 1   
    39    23    24 2   
    40    23    25 1   
    41    23    42 1   
    42    24    43 1   
    43    25    26 1   
    44    25    44 1   
    45    25    45 1   
    46    26    46 1   
@<TRIPOS>SUBSTRUCTURE
     1 3FS         1 TEMP              0 ****  ****    0 ROOT
