@<TRIPOS>MOLECULE
3FT
   43    45     1     0     0
SMALL
bcc


@<TRIPOS>ATOM
      1 C1          35.5900    47.4650    40.6190 ca         1 3FT      -0.124000
      2 C2          35.0970    48.2530    41.6500 ca         1 3FT      -0.135000
      3 C3          35.5420    47.9980    42.9370 ca         1 3FT       0.083100
      4 O4          35.1130    48.8220    43.9730 os         1 3FT      -0.381900
      5 C5          34.0220    48.4520    44.6540 c3         1 3FT       0.853700
      6 F6          34.1740    47.2810    45.2760 f          1 3FT      -0.234633
      7 F7          33.7830    49.3790    45.5680 f          1 3FT      -0.234633
      8 F8          32.9430    48.3380    43.8780 f          1 3FT      -0.234633
      9 C9          36.4520    46.9960    43.2140 ca         1 3FT      -0.120000
     10 C10         36.9410    46.2000    42.1770 cp         1 3FT       0.016000
     11 C11         37.9010    45.1190    42.4630 cp         1 3FT      -0.097000
     12 C12         36.4960    46.4490    40.8780 ca         1 3FT      -0.117000
     13 C13         38.9270    44.8180    41.5680 ca         1 3FT      -0.138000
     14 C14         39.8140    43.8090    41.8600 ca         1 3FT       0.081900
     15 F15         40.8060    43.5630    40.9880 f          1 3FT      -0.126900
     16 C16         39.7470    43.0350    43.0220 ca         1 3FT       0.100600
     17 N17         40.6820    42.0230    43.1930 ns         1 3FT      -0.492100
     18 C18         38.7070    43.3420    43.9050 ca         1 3FT      -0.160000
     19 C19         37.8120    44.3630    43.6290 ca         1 3FT      -0.105000
     20 C20         41.0440    41.4660    44.3710 c          1 3FT       0.694300
     21 C21         42.0810    40.4000    44.3270 ce         1 3FT      -0.220400
     22 O22         40.5930    41.8080    45.4580 o          1 3FT      -0.653100
     23 C23         42.5530    39.6310    43.3260 cf         1 3FT      -0.109400
     24 C24         43.5240    38.6100    43.8610 c5         1 3FT      -0.046200
     25 C25         43.8810    39.1390    45.2500 c5         1 3FT      -0.089400
     26 C26         42.6740    39.9870    45.6540 c5         1 3FT      -0.027200
     27 C27         42.2090    39.5810    41.8550 c          1 3FT       0.925800
     28 O28         41.7750    40.6270    41.3040 o          1 3FT      -0.791800
     29 O29         42.4070    38.4980    41.2910 o          1 3FT      -0.791800
     30 H1          35.2550    47.6410    39.6060 ha         1 3FT       0.132000
     31 H2          34.3990    49.0560    41.4530 ha         1 3FT       0.142000
     32 H9          36.8070    46.8570    44.2270 ha         1 3FT       0.156000
     33 H12         36.8470    45.8320    40.0600 ha         1 3FT       0.144000
     34 H13         39.0620    45.3850    40.6560 ha         1 3FT       0.136000
     35 H17         41.1510    41.6130    42.3440 hn         1 3FT       0.420500
     36 H18         38.5850    42.7730    44.8110 ha         1 3FT       0.163000
     37 H19         37.0120    44.5460    44.3340 ha         1 3FT       0.124000
     38 H241        44.3940    38.4820    43.2150 hc         1 3FT       0.057700
     39 H242        43.0330    37.6320    43.9120 hc         1 3FT       0.057700
     40 H251        44.7670    39.7730    45.1840 hc         1 3FT       0.028200
     41 H252        44.1000    38.3460    45.9660 hc         1 3FT       0.028200
     42 H261        41.9440    39.4030    46.2250 hc         1 3FT       0.042700
     43 H262        42.9460    40.8390    46.2790 hc         1 3FT       0.042700
@<TRIPOS>BOND
     1     1     2 ar  
     2     1    12 ar  
     3     1    30 1   
     4     2     3 ar  
     5     2    31 1   
     6     3     4 1   
     7     3     9 ar  
     8     4     5 1   
     9     5     6 1   
    10     5     7 1   
    11     5     8 1   
    12     9    10 ar  
    13     9    32 1   
    14    10    11 1   
    15    10    12 ar  
    16    11    13 ar  
    17    11    19 ar  
    18    12    33 1   
    19    13    14 ar  
    20    13    34 1   
    21    14    15 1   
    22    14    16 ar  
    23    16    17 1   
    24    16    18 ar  
    25    17    20 1   
    26    17    35 1   
    27    18    19 ar  
    28    18    36 1   
    29    19    37 1   
    30    20    21 1   
    31    20    22 2   
    32    21    23 2   
    33    21    26 1   
    34    23    24 1   
    35    23    27 1   
    36    24    25 1   
    37    24    38 1   
    38    24    39 1   
    39    25    26 1   
    40    25    40 1   
    41    25    41 1   
    42    26    42 1   
    43    26    43 1   
    44    27    28 1   
    45    27    29 1   
@<TRIPOS>SUBSTRUCTURE
     1 3FT         1 TEMP              0 ****  ****    0 ROOT
