@<TRIPOS>MOLECULE
3FT
   43    45     1     0     0
SMALL
No Charge or Current Charge


@<TRIPOS>ATOM
      1 C1          35.5620    47.5330    40.3440 ca         1 3FT      -0.106000
      2 C2          34.9190    48.2440    41.3690 ca         1 3FT      -0.117000
      3 C3          35.1880    47.9510    42.7160 ca         1 3FT       0.083100
      4 O4          34.5180    48.6970    43.6700 os         1 3FT      -0.405100
      5 C5          34.6760    48.5220    45.0930 c3         1 3FT       0.513000
      6 F6          35.9470    48.7510    45.4970 f          1 3FT      -0.113333
      7 F7          33.8880    49.3870    45.7690 f          1 3FT      -0.113333
      8 F8          34.3280    47.2770    45.4950 f          1 3FT      -0.113333
      9 C9          36.1140    46.9290    43.0300 ca         1 3FT      -0.102000
     10 C10         36.7740    46.1970    42.0110 cp         1 3FT       0.016000
     11 C11         37.7540    45.1150    42.3490 cp         1 3FT      -0.097000
     12 C12         36.4810    46.5200    40.6630 ca         1 3FT      -0.099000
     13 C13         38.9060    44.8950    41.5540 ca         1 3FT      -0.120000
     14 C14         39.8230    43.8810    41.8730 ca         1 3FT       0.117000
     15 F15         40.9150    43.7170    41.0920 f          1 3FT      -0.162000
     16 C16         39.6270    43.0540    42.9980 ca         1 3FT       0.008000
     17 N17         40.5780    42.0300    43.2720 ns         1 3FT      -0.166000
     18 C18         38.4770    43.2560    43.7900 ca         1 3FT      -0.142000
     19 C19         37.5590    44.2720    43.4700 ca         1 3FT      -0.087000
     20 C20         40.8840    41.3470    44.4320 c          1 3FT       0.627300
     21 C21         41.9350    40.2530    44.3310 ce         1 3FT      -0.220400
     22 O22         40.3540    41.6280    45.5030 o          1 3FT      -0.653100
     23 C23         42.6230    39.6460    43.3010 cf         1 3FT      -0.109400
     24 C24         43.5970    38.6280    43.9340 c5         1 3FT      -0.046200
     25 C25         43.7630    39.1420    45.3820 c5         1 3FT      -0.089400
     26 C26         42.3390    39.6660    45.6920 c5         1 3FT      -0.027200
     27 C27         42.5790    39.8270    41.7990 c          1 3FT       0.715200
     28 O28         41.7820    40.6070    41.3100 o          1 3FT      -0.686500
     29 O29         43.3400    39.1530    41.1190 o          1 3FT      -0.686500
     30 H1          35.3470    47.7640    39.3030 ha         1 3FT       0.114000
     31 H2          34.2080    49.0280    41.1200 ha         1 3FT       0.124000
     32 H9          36.3500    46.6950    44.0620 ha         1 3FT       0.138000
     33 H12         36.9590    45.9700    39.8560 ha         1 3FT       0.126000
     34 H13         39.1020    45.5250    40.6910 ha         1 3FT       0.118000
     35 H17         41.1120    41.7320    42.4650 hn         1 3FT       0.254000
     36 H18         38.2700    42.6210    44.6480 ha         1 3FT       0.145000
     37 H19         36.6760    44.3920    44.0930 ha         1 3FT       0.106000
     38 H241        44.5610    38.5850    43.4150 hc         1 3FT       0.057700
     39 H242        43.1700    37.6190    43.9120 hc         1 3FT       0.057700
     40 H251        44.4970    39.9550    45.4270 hc         1 3FT       0.028200
     41 H252        44.0910    38.3610    46.0770 hc         1 3FT       0.028200
     42 H261        41.6610    38.8570    45.9910 hc         1 3FT       0.042700
     43 H262        42.3610    40.4030    46.5040 hc         1 3FT       0.042700
@<TRIPOS>BOND
     1     1     2 ar  
     2     1    12 ar  
     3     1    30 1   
     4     2     3 ar  
     5     2    31 1   
     6     3     4 1   
     7     3     9 ar  
     8     4     5 1   
     9     5     6 1   
    10     5     7 1   
    11     5     8 1   
    12     9    10 ar  
    13     9    32 1   
    14    10    11 1   
    15    10    12 ar  
    16    11    13 ar  
    17    11    19 ar  
    18    12    33 1   
    19    13    14 ar  
    20    13    34 1   
    21    14    15 1   
    22    14    16 ar  
    23    16    17 1   
    24    16    18 ar  
    25    17    20 1   
    26    17    35 1   
    27    18    19 ar  
    28    18    36 1   
    29    19    37 1   
    30    20    21 1   
    31    20    22 2   
    32    21    23 2   
    33    21    26 1   
    34    23    24 1   
    35    23    27 1   
    36    24    25 1   
    37    24    38 1   
    38    24    39 1   
    39    25    26 1   
    40    25    40 1   
    41    25    41 1   
    42    26    42 1   
    43    26    43 1   
    44    27    28 1   
    45    27    29 1   
@<TRIPOS>SUBSTRUCTURE
     1 3FT         1 TEMP              0 ****  ****    0 ROOT
