@<TRIPOS>MOLECULE
3FU
   60    61     1     0     0
SMALL
No Charge or Current Charge


@<TRIPOS>ATOM
      1 C11         -4.3480    -0.3800    -1.8470 ca         1 3FU       0.118500
      2 C12         -4.5450     0.9960    -1.6490 ca         1 3FU      -0.094000
      3 C13         -4.1870     1.5810    -0.4250 ca         1 3FU       0.118500
      4 C14         -3.6320     0.7960     0.6000 ca         1 3FU      -0.083500
      5 C7          -1.3470    -1.8230     0.9690 c          1 3FU       0.606100
      6 C8          -2.7740    -1.4380     1.4970 c3         1 3FU       0.149800
      7 C9          -3.4280    -0.5860     0.4060 ca         1 3FU      -0.078300
      8 C10         -3.7920    -1.1680    -0.8260 ca         1 3FU      -0.083500
      9 Cl1         -4.7880    -1.1170    -3.3810 cl         1 3FU      -0.192000
     10 Cl2         -4.4230     3.3050    -0.1760 cl         1 3FU      -0.192000
     11 N21         -3.6750    -2.5440     1.9830 n3         1 3FU      -0.689600
     12 N3          -0.4300    -0.7930     1.0260 ns         1 3FU      -0.488900
     13 C2           0.9060    -0.7920     0.3860 c3         1 3FU       0.033700
     14 C1           1.9230     0.0100     1.2580 c          1 3FU       0.594100
     15 O4           1.6020     0.6270     2.2680 o          1 3FU      -0.612100
     16 C5           0.8390    -0.3020    -1.1060 c3         1 3FU      -0.065700
     17 C18         -0.0720     0.9380    -1.3580 c3         1 3FU      -0.075400
     18 C20          0.4400    -1.4520    -2.0630 c3         1 3FU      -0.093100
     19 C19          0.3040     2.2090    -0.5700 c3         1 3FU      -0.097100
     20 C24          4.3410     0.6760     1.4880 c3         1 3FU       0.050700
     21 C25          5.6390     0.5620     0.7030 ca         1 3FU       0.110300
     22 C27          7.0850     1.4580    -0.8610 ca         1 3FU       0.091700
     23 C29          7.6630    -0.5710     0.0740 ca         1 3FU       0.111900
     24 C30          6.4920    -0.5460     0.8480 ca         1 3FU      -0.206000
     25 N6           3.2330    -0.0270     0.8300 ns         1 3FU      -0.500900
     26 N26          5.9340     1.5630    -0.1530 nb         1 3FU      -0.206000
     27 N28          7.9640     0.4280    -0.7810 nb         1 3FU      -0.124000
     28 C31          7.3920     2.5840    -1.8050 ce         1 3FU       0.355200
     29 N32          8.4570     2.6180    -2.5450 n2         1 3FU      -0.687100
     30 H2          -4.9710     1.6050    -2.4410 ha         1 3FU       0.145000
     31 H3          -3.3550     1.2680     1.5400 ha         1 3FU       0.146500
     32 H12         -2.8500    -2.7660     3.9420 h1         1 3FU       0.038367
     33 H13         -3.7250    -4.1910     3.3390 h1         1 3FU       0.038367
     34 H14         -2.1130    -3.8190     2.7120 h1         1 3FU       0.038367
     35 H15         -4.9640    -1.3530     3.2040 h1         1 3FU       0.038367
     36 H16         -5.5440    -1.5930     1.5390 h1         1 3FU       0.038367
     37 H17         -5.6490    -2.9170     2.7070 h1         1 3FU       0.038367
     38 H25         -2.5890    -0.7760     2.3550 h1         1 3FU       0.034700
     39 H26         -3.6390    -2.2320    -0.9920 ha         1 3FU       0.146500
     40 H22         -0.7380     0.0650     1.4690 hn         1 3FU       0.325500
     41 H1           1.2930    -1.8200     0.3930 h1         1 3FU       0.096700
     42 H23          1.8530    -0.0150    -1.4110 hc         1 3FU       0.049700
     43 H4          -0.0310     1.1860    -2.4260 hc         1 3FU       0.041200
     44 H5          -1.1190     0.6840    -1.1500 hc         1 3FU       0.041200
     45 H9          -0.6040    -1.7490    -1.9100 hc         1 3FU       0.042367
     46 H10          0.5500    -1.1390    -3.1080 hc         1 3FU       0.042367
     47 H11          1.0770    -2.3310    -1.9090 hc         1 3FU       0.042367
     48 H6          -0.2860     3.0620    -0.9250 hc         1 3FU       0.036700
     49 H7           0.0990     2.0880     0.4990 hc         1 3FU       0.036700
     50 H8           1.3660     2.4500    -0.7000 hc         1 3FU       0.036700
     51 H18          4.4840     0.2530     2.4920 h1         1 3FU       0.068700
     52 H19          4.0720     1.7350     1.6060 h1         1 3FU       0.068700
     53 H20          8.3690    -1.3970     0.1350 h4         1 3FU       0.033100
     54 H21          6.2560    -1.3570     1.5320 ha         1 3FU       0.141000
     55 H24          3.4300    -0.5640    -0.0070 hn         1 3FU       0.347500
     56 H28          6.6650     3.3980    -1.8490 h4         1 3FU      -0.014200
     57 H29          8.4550     3.4820    -3.1090 hn         1 3FU       0.384400
     58 O17         -1.0580    -2.9190     0.4980 o          1 3FU      -0.581100
     59 C22         -3.0560    -3.3700     3.0480 c3         1 3FU       0.143100
     60 C23         -5.0260    -2.0740     2.3780 c3         1 3FU       0.143100
@<TRIPOS>BOND
     1     1     2 ar  
     2     1     8 ar  
     3     1     9 1   
     4     2     3 ar  
     5     2    30 1   
     6     3     4 ar  
     7     3    10 1   
     8     4     7 ar  
     9     4    31 1   
    10     5     6 1   
    11     5    12 1   
    12     5    58 2   
    13     6     7 1   
    14     6    11 1   
    15     6    38 1   
    16     7     8 ar  
    17     8    39 1   
    18    11    59 1   
    19    11    60 1   
    20    12    13 1   
    21    12    40 1   
    22    13    14 1   
    23    13    16 1   
    24    13    41 1   
    25    14    15 2   
    26    14    25 1   
    27    16    17 1   
    28    16    18 1   
    29    16    42 1   
    30    17    19 1   
    31    17    43 1   
    32    17    44 1   
    33    18    45 1   
    34    18    46 1   
    35    18    47 1   
    36    19    48 1   
    37    19    49 1   
    38    19    50 1   
    39    20    21 1   
    40    20    25 1   
    41    20    51 1   
    42    20    52 1   
    43    21    24 ar  
    44    21    26 ar  
    45    22    26 ar  
    46    22    27 ar  
    47    22    28 1   
    48    23    24 ar  
    49    23    27 ar  
    50    23    53 1   
    51    24    54 1   
    52    25    55 1   
    53    28    29 2   
    54    28    56 1   
    55    29    57 1   
    56    32    59 1   
    57    33    59 1   
    58    34    59 1   
    59    35    60 1   
    60    36    60 1   
    61    37    60 1   
@<TRIPOS>SUBSTRUCTURE
     1 3FU         1 TEMP              0 ****  ****    0 ROOT
