@<TRIPOS>MOLECULE
3FU
   60    61     1     0     0
SMALL
bcc


@<TRIPOS>ATOM
      1 C11         -4.6030    -1.1100    -2.0880 ca         1 3FU       0.026900
      2 C12         -4.8520     0.2510    -2.1950 ca         1 3FU      -0.112000
      3 C13         -4.4160     1.0680    -1.1670 ca         1 3FU       0.026900
      4 C14         -3.7520     0.5580    -0.0620 ca         1 3FU      -0.101500
      5 C7          -1.3120    -1.5900     0.6050 c          1 3FU       0.673100
      6 C8          -2.7180    -1.3660     1.1790 c3         1 3FU       0.149800
      7 C9          -3.5120    -0.8060     0.0170 ca         1 3FU      -0.078300
      8 C10         -3.9370    -1.6500    -1.0040 ca         1 3FU      -0.101500
      9 CL1         -5.1410    -2.1560    -3.3570 cl         1 3FU      -0.100400
     10 CL2         -4.7120     2.7700    -1.2640 cl         1 3FU      -0.100400
     11 N21         -3.2820    -2.5910     1.6940 n3         1 3FU      -0.689600
     12 N3          -0.4700    -0.5730     0.8420 ns         1 3FU      -0.555900
     13 C2           0.8320    -0.4490     0.2430 c3         1 3FU       0.033700
     14 C1           1.8850    -0.2710     1.3400 c          1 3FU       0.661100
     15 O4           1.5990    -0.2520     2.5270 o          1 3FU      -0.612100
     16 C5           0.8470     0.6270    -0.8660 c3         1 3FU      -0.065700
     17 C18          0.4160     2.0230    -0.4090 c3         1 3FU      -0.075400
     18 C20         -0.0300     0.1780    -2.0330 c3         1 3FU      -0.093100
     19 C19          1.3050     2.7100     0.6190 c3         1 3FU      -0.097100
     20 C24          4.2630     0.0310     1.7690 c3         1 3FU       0.050700
     21 C25          5.5130     0.2760     0.9730 ca         1 3FU       0.438600
     22 C27          6.5330     0.4640    -1.0520 ca         1 3FU       0.617700
     23 C29          7.8180     0.7380     0.7760 ca         1 3FU       0.440200
     24 C30          6.7270     0.5240     1.5990 ca         1 3FU      -0.354600
     25 N6           3.1420    -0.1710     0.8940 ns         1 3FU      -0.567900
     26 N26          5.4270     0.2460    -0.3480 nb         1 3FU      -0.732000
     27 N28          7.7310     0.7110    -0.5490 nb         1 3FU      -0.650000
     28 C31          6.3570     0.4150    -2.5220 ce         1 3FU       0.355200
     29 N32          7.3240     0.6050    -3.3100 n2         1 3FU      -0.687100
     30 H2          -5.3710     0.6580    -3.0510 ha         1 3FU       0.163000
     31 H3          -3.4300     1.2170     0.7340 ha         1 3FU       0.164500
     32 H12         -2.3600    -2.4820     3.6180 h1         1 3FU       0.038367
     33 H13         -2.9260    -4.0780     3.1070 h1         1 3FU       0.038367
     34 H14         -1.4700    -3.4080     2.3950 h1         1 3FU       0.038367
     35 H15         -4.7070    -1.6640     2.9900 h1         1 3FU       0.038367
     36 H16         -5.2920    -2.0500     1.3650 h1         1 3FU       0.038367
     37 H17         -5.0370    -3.3410     2.5300 h1         1 3FU       0.038367
     38 H25         -2.6650    -0.5870     1.9610 h1         1 3FU       0.034700
     39 H26         -3.7520    -2.7140    -0.9410 ha         1 3FU       0.164500
     40 H22         -0.7560     0.1400     1.4940 hn         1 3FU       0.325500
     41 H1           1.0590    -1.4070    -0.2340 h1         1 3FU       0.096700
     42 H23          1.8730     0.6990    -1.2430 hc         1 3FU       0.049700
     43 H4           0.3780     2.6500    -1.3040 hc         1 3FU       0.041200
     44 H5          -0.6160     1.9830    -0.0440 hc         1 3FU       0.041200
     45 H9          -1.0860     0.1620    -1.7570 hc         1 3FU       0.042367
     46 H10          0.0750     0.8710    -2.8700 hc         1 3FU       0.042367
     47 H11          0.2400    -0.8180    -2.3870 hc         1 3FU       0.042367
     48 H6           1.0120     3.7540     0.7320 hc         1 3FU       0.036700
     49 H7           1.2390     2.2570     1.6080 hc         1 3FU       0.036700
     50 H8           2.3520     2.6930     0.3110 hc         1 3FU       0.036700
     51 H18          4.4240    -0.8330     2.4210 h1         1 3FU       0.068700
     52 H19          4.0960     0.8870     2.4300 h1         1 3FU       0.068700
     53 H20          8.7950     0.9380     1.1990 h4         1 3FU       0.033100
     54 H21          6.8210     0.5510     2.6750 ha         1 3FU       0.159000
     55 H24          3.3490    -0.2010    -0.0940 hn         1 3FU       0.347500
     56 H28          5.3340     0.2030    -2.8360 h4         1 3FU      -0.014200
     57 H29          7.0080     0.5320    -4.2730 hn         1 3FU       0.384400
     58 O17         -1.0400    -2.5670    -0.0710 o          1 3FU      -0.581100
     59 C22         -2.4660    -3.1550     2.7540 c3         1 3FU       0.143100
     60 C23         -4.6400    -2.3930     2.1680 c3         1 3FU       0.143100
@<TRIPOS>BOND
     1     1     2 ar  
     2     1     8 ar  
     3     1     9 1   
     4     2     3 ar  
     5     2    30 1   
     6     3     4 ar  
     7     3    10 1   
     8     4     7 ar  
     9     4    31 1   
    10     5     6 1   
    11     5    12 1   
    12     5    58 2   
    13     6     7 1   
    14     6    11 1   
    15     6    38 1   
    16     7     8 ar  
    17     8    39 1   
    18    11    59 1   
    19    11    60 1   
    20    12    13 1   
    21    12    40 1   
    22    13    14 1   
    23    13    16 1   
    24    13    41 1   
    25    14    15 2   
    26    14    25 1   
    27    16    17 1   
    28    16    18 1   
    29    16    42 1   
    30    17    19 1   
    31    17    43 1   
    32    17    44 1   
    33    18    45 1   
    34    18    46 1   
    35    18    47 1   
    36    19    48 1   
    37    19    49 1   
    38    19    50 1   
    39    20    21 1   
    40    20    25 1   
    41    20    51 1   
    42    20    52 1   
    43    21    24 ar  
    44    21    26 ar  
    45    22    26 ar  
    46    22    27 ar  
    47    22    28 1   
    48    23    24 ar  
    49    23    27 ar  
    50    23    53 1   
    51    24    54 1   
    52    25    55 1   
    53    28    29 2   
    54    28    56 1   
    55    29    57 1   
    56    32    59 1   
    57    33    59 1   
    58    34    59 1   
    59    35    60 1   
    60    36    60 1   
    61    37    60 1   
@<TRIPOS>SUBSTRUCTURE
     1 3FU         1 TEMP              0 ****  ****    0 ROOT
