@<TRIPOS>MOLECULE
3FV
   44    47     1     0     0
SMALL
No Charge or Current Charge


@<TRIPOS>ATOM
      1 CAJ         -4.0050     1.3590     1.3390 c6         1 3FV      -0.131900
      2 CAK         -4.7370     2.7180     1.2690 c6         1 3FV       0.151300
      3 NAL         -5.5720     2.8020     0.0460 n7         1 3FV      -0.845400
      4 CAM         -4.7910     2.6260    -1.2030 c6         1 3FV       0.151300
      5 CAN         -4.0600     1.2640    -1.2040 c6         1 3FV      -0.131900
      6 CAI         -3.1650     1.1230     0.0560 c6         1 3FV       0.093300
      7 NAD         -2.4730    -0.1880     0.0900 na         1 3FV       0.156800
      8 NAE         -1.0960    -0.2870     0.0640 nc         1 3FV      -0.506800
      9 CAC         -3.1110    -1.4240     0.1490 cc         1 3FV      -0.182000
     10 CAB         -2.0870    -2.3210     0.1610 cd         1 3FV       0.041000
     11 Cl          -2.2480    -4.0500     0.2280 cl         1 3FV      -0.128000
     12 CAF         -0.8660    -1.6000     0.1080 cd         1 3FV       0.207500
     13 CAG          0.5260    -2.1770     0.1000 c          1 3FV       0.539600
     14 OAH          0.7910    -3.3750     0.1380 o          1 3FV      -0.590100
     15 NAO          1.4990    -1.1920     0.0420 ns         1 3FV      -0.362100
     16 CAP          2.8860    -1.2970     0.0170 cc         1 3FV      -0.008400
     17 CAT          3.6130    -2.4480     0.0440 cd         1 3FV      -0.201000
     18 NAS          4.9470    -2.0300     0.0000 na         1 3FV       0.011800
     19 NAR          5.0670    -0.6430    -0.0540 nd         1 3FV      -0.506800
     20 CAQ          3.8090    -0.2190    -0.0430 cc         1 3FV       0.149000
     21 CAU          3.4410     1.2250    -0.0890 ca         1 3FV       0.340000
     22 NAV          2.1220     1.5740    -0.0740 nb         1 3FV      -0.701000
     23 CAW          1.7890     2.8840    -0.1160 ca         1 3FV       0.347900
     24 CAX          2.7430     3.9110    -0.1750 ca         1 3FV      -0.169000
     25 CAY          4.1040     3.5740    -0.1910 ca         1 3FV      -0.072000
     26 CAZ          4.4510     2.2140    -0.1470 ca         1 3FV      -0.136000
     27 H1          -3.3530     1.3360     2.2230 hc         1 3FV       0.059200
     28 H2          -4.7400     0.5530     1.4700 hc         1 3FV       0.059200
     29 H3          -5.3700     2.8440     2.1610 h1         1 3FV       0.059700
     30 H4          -3.9990     3.5350     1.2710 h1         1 3FV       0.059700
     31 H5          -6.2870     2.0650     0.0880 hn         1 3FV       0.409000
     32 H7          -5.4610     2.6870    -2.0740 h1         1 3FV       0.059700
     33 H8          -4.0550     3.4390    -1.2970 h1         1 3FV       0.059700
     34 H9          -4.7990     0.4520    -1.2420 hc         1 3FV       0.059200
     35 H10         -3.4470     1.1750    -2.1110 hc         1 3FV       0.059200
     36 H11         -2.3900     1.9020     0.0100 h1         1 3FV       0.089700
     37 H12         -4.1850    -1.5510     0.1770 h4         1 3FV       0.167000
     38 H13          1.1140    -0.2480     0.0150 hn         1 3FV       0.379500
     39 H14          3.3190    -3.4900     0.0890 h4         1 3FV       0.184000
     40 H15          5.7690    -2.6350     0.0060 hn         1 3FV       0.376000
     41 H16          0.7250     3.1150    -0.1020 h4         1 3FV       0.016100
     42 H17          2.4250     4.9490    -0.2070 ha         1 3FV       0.123000
     43 H18          4.8700     4.3460    -0.2360 ha         1 3FV       0.120000
     44 H19          5.5000     1.9300    -0.1590 ha         1 3FV       0.141000
@<TRIPOS>BOND
     1     1     2 1   
     2     1     6 1   
     3     1    27 1   
     4     1    28 1   
     5     2     3 1   
     6     2    29 1   
     7     2    30 1   
     8     3     4 1   
     9     3    31 1   
    10     4     5 1   
    11     4    32 1   
    12     4    33 1   
    13     5     6 1   
    14     5    34 1   
    15     5    35 1   
    16     6     7 1   
    17     6    36 1   
    18     7     8 1   
    19     7     9 1   
    20     8    12 2   
    21     9    10 2   
    22     9    37 1   
    23    10    11 1   
    24    10    12 1   
    25    12    13 1   
    26    13    14 2   
    27    13    15 1   
    28    15    16 1   
    29    15    38 1   
    30    16    17 2   
    31    16    20 1   
    32    17    18 1   
    33    17    39 1   
    34    18    19 1   
    35    18    40 1   
    36    19    20 2   
    37    20    21 1   
    38    21    22 ar  
    39    21    26 ar  
    40    22    23 ar  
    41    23    24 ar  
    42    23    41 1   
    43    24    25 ar  
    44    24    42 1   
    45    25    26 ar  
    46    25    43 1   
    47    26    44 1   
@<TRIPOS>SUBSTRUCTURE
     1 3FV         1 TEMP              0 ****  ****    0 ROOT
