@<TRIPOS>MOLECULE
3FV
   44    47     1     0     0
SMALL
abcg2


@<TRIPOS>ATOM
      1 CAJ         -3.6760     1.4420     1.2460 c6         1 3FV      -0.131900
      2 CAK         -4.3470     2.8130     1.1560 c6         1 3FV       0.151300
      3 NAL         -5.4010     2.8880     0.1600 n7         1 3FV      -0.845400
      4 CAM         -4.9410     2.4570    -1.1480 c6         1 3FV       0.151300
      5 CAN         -4.2970     1.0690    -1.1580 c6         1 3FV      -0.131900
      6 CAI         -3.1720     1.0280    -0.1330 c6         1 3FV       0.093300
      7 NAD         -2.5200    -0.2760    -0.0930 na         1 3FV       0.156800
      8 NAE         -1.2070    -0.3530    -0.0830 nc         1 3FV      -0.506800
      9 CAC         -3.1090    -1.4840    -0.0020 cc         1 3FV      -0.182000
     10 CAB         -2.0860    -2.4000     0.0630 cd         1 3FV       0.041000
     11 CL          -2.2700    -4.0910     0.1820 cl         1 3FV      -0.128000
     12 CAF         -0.9060    -1.6410     0.0090 cd         1 3FV       0.207500
     13 CAG          0.4970    -2.0980     0.0340 c          1 3FV       0.539600
     14 OAH          0.7920    -3.2820     0.0850 o          1 3FV      -0.590100
     15 NAO          1.3940    -1.0930    -0.0050 ns         1 3FV      -0.362100
     16 CAP          2.7700    -1.2400     0.0110 cc         1 3FV      -0.008400
     17 CAT          3.5530    -2.3750     0.0330 cd         1 3FV      -0.201000
     18 NAS          4.8260    -1.9330     0.0430 na         1 3FV       0.011800
     19 NAR          4.9370    -0.6240     0.0310 nd         1 3FV      -0.506800
     20 CAQ          3.6940    -0.1650     0.0120 cc         1 3FV       0.149000
     21 CAU          3.4040     1.2680    -0.0010 ca         1 3FV       0.340000
     22 NAV          2.1150     1.6080    -0.0310 nb         1 3FV      -0.701000
     23 CAW          1.7870     2.8930    -0.0390 ca         1 3FV       0.347900
     24 CAX          2.7230     3.9130    -0.0180 ca         1 3FV      -0.169000
     25 CAY          4.0670     3.5630     0.0120 ca         1 3FV      -0.072000
     26 CAZ          4.4180     2.2260     0.0210 ca         1 3FV      -0.136000
     27 H1          -2.8480     1.4700     1.9580 hc         1 3FV       0.059200
     28 H2          -4.3990     0.7060     1.6140 hc         1 3FV       0.059200
     29 H3          -4.7590     3.0850     2.1290 h1         1 3FV       0.059700
     30 H4          -3.5920     3.5690     0.9170 h1         1 3FV       0.059700
     31 H5          -6.1740     2.3010     0.4520 hn         1 3FV       0.409000
     32 H7          -5.7820     2.4760    -1.8430 h1         1 3FV       0.059700
     33 H8          -4.2150     3.1890    -1.5150 h1         1 3FV       0.059700
     34 H9          -5.0590     0.3180    -0.9260 hc         1 3FV       0.059200
     35 H10         -3.9100     0.8420    -2.1540 hc         1 3FV       0.059200
     36 H11         -2.3850     1.7180    -0.4460 h1         1 3FV       0.089700
     37 H12         -4.1770    -1.6210     0.0110 h4         1 3FV       0.167000
     38 H13          1.0750    -0.1270    -0.0360 hn         1 3FV       0.379500
     39 H14          3.3160    -3.4230     0.0420 h4         1 3FV       0.184000
     40 H15          5.6550    -2.5060     0.0610 hn         1 3FV       0.376000
     41 H16          0.7260     3.1160    -0.0630 h4         1 3FV       0.016100
     42 H17          2.4080     4.9470    -0.0250 ha         1 3FV       0.123000
     43 H18          4.8340     4.3260     0.0300 ha         1 3FV       0.120000
     44 H19          5.4560     1.9240     0.0450 ha         1 3FV       0.141000
@<TRIPOS>BOND
     1     1     2 1   
     2     1     6 1   
     3     1    27 1   
     4     1    28 1   
     5     2     3 1   
     6     2    29 1   
     7     2    30 1   
     8     3     4 1   
     9     3    31 1   
    10     4     5 1   
    11     4    32 1   
    12     4    33 1   
    13     5     6 1   
    14     5    34 1   
    15     5    35 1   
    16     6     7 1   
    17     6    36 1   
    18     7     8 1   
    19     7     9 1   
    20     8    12 2   
    21     9    10 2   
    22     9    37 1   
    23    10    11 1   
    24    10    12 1   
    25    12    13 1   
    26    13    14 2   
    27    13    15 1   
    28    15    16 1   
    29    15    38 1   
    30    16    17 2   
    31    16    20 1   
    32    17    18 1   
    33    17    39 1   
    34    18    19 1   
    35    18    40 1   
    36    19    20 2   
    37    20    21 1   
    38    21    22 ar  
    39    21    26 ar  
    40    22    23 ar  
    41    23    24 ar  
    42    23    41 1   
    43    24    25 ar  
    44    24    42 1   
    45    25    26 ar  
    46    25    43 1   
    47    26    44 1   
@<TRIPOS>SUBSTRUCTURE
     1 3FV         1 TEMP              0 ****  ****    0 ROOT
