@<TRIPOS>MOLECULE
3FW
   18    18     1     0     0
SMALL
No Charge or Current Charge


@<TRIPOS>ATOM
      1 C24          2.5200     0.5360     0.5220 c3         1 3FW       0.100500
      2 C25          1.1590    -0.1150     0.2610 ca         1 3FW       0.127300
      3 C27         -1.1320     0.1140     0.0510 ca         1 3FW       0.080700
      4 C29         -0.2520    -2.0030    -0.2150 ca         1 3FW       0.104900
      5 C30          1.0360    -1.4940     0.0130 ca         1 3FW      -0.212000
      6 N6           3.2390     0.9100    -0.7210 n8         1 3FW      -0.984200
      7 N26          0.0740     0.6890     0.2800 nb         1 3FW      -0.175000
      8 N28         -1.3380    -1.2040    -0.1960 nb         1 3FW      -0.128000
      9 C31         -2.3200     1.0290     0.0770 ce         1 3FW       0.359200
     10 N32         -3.5350     0.6190    -0.1230 n2         1 3FW      -0.695100
     11 H18          2.3830     1.4380     1.1340 h1         1 3FW       0.041700
     12 H19          3.1480    -0.1620     1.0930 h1         1 3FW       0.041700
     13 H20         -0.4200    -3.0600    -0.4140 h4         1 3FW       0.028100
     14 H21          1.9070    -2.1440    -0.0060 ha         1 3FW       0.134000
     15 H24          2.6930     1.6200    -1.2270 hn         1 3FW       0.404500
     16 H28         -2.1220     2.0840     0.2780 h4         1 3FW      -0.013200
     17 H29         -4.1820     1.4200    -0.0570 hn         1 3FW       0.379400
     18 H2           4.1070     1.4050    -0.4760 hn         1 3FW       0.404500
@<TRIPOS>BOND
     1     1     2 1   
     2     1     6 1   
     3     1    11 1   
     4     1    12 1   
     5     2     5 ar  
     6     2     7 ar  
     7     3     7 ar  
     8     3     8 ar  
     9     3     9 1   
    10     4     5 ar  
    11     4     8 ar  
    12     4    13 1   
    13     5    14 1   
    14     6    15 1   
    15     6    18 1   
    16     9    10 2   
    17     9    16 1   
    18    10    17 1   
@<TRIPOS>SUBSTRUCTURE
     1 3FW         1 TEMP              0 ****  ****    0 ROOT
