@<TRIPOS>MOLECULE
3FW
   18    18     1     0     0
SMALL
bcc


@<TRIPOS>ATOM
      1 C24          2.5930     0.3390     0.2200 c3         1 3FW       0.100500
      2 C25          1.2120    -0.2460     0.1350 ca         1 3FW       0.455600
      3 C27         -1.0320     0.0760    -0.0490 ca         1 3FW       0.606700
      4 C29         -0.3240    -2.0440     0.2040 ca         1 3FW       0.433200
      5 C30          0.9900    -1.6130     0.2540 ca         1 3FW      -0.360600
      6 N6           2.7110     1.5620    -0.5460 n8         1 3FW      -0.873800
      7 N26          0.1910     0.5900    -0.0140 nb         1 3FW      -0.701000
      8 N28         -1.3420    -1.2090     0.0520 nb         1 3FW      -0.654000
      9 C31         -2.1230     1.0640    -0.2200 ce         1 3FW       0.359200
     10 N32         -3.3350     0.7130    -0.2600 n2         1 3FW      -0.695100
     11 H18          2.8220     0.4510     1.2910 h1         1 3FW       0.041700
     12 H19          3.3060    -0.3950    -0.1600 h1         1 3FW       0.041700
     13 H20         -0.5610    -3.0990     0.2840 h4         1 3FW       0.028100
     14 H21          1.8040    -2.3130     0.3720 ha         1 3FW       0.152000
     15 H24          2.1040     2.2680    -0.1510 hn         1 3FW       0.349300
     16 H28         -1.7750     2.0950    -0.3040 h4         1 3FW      -0.013200
     17 H29         -3.9300     1.5280    -0.3840 hn         1 3FW       0.379400
     18 H2           3.6540     1.9150    -0.4510 hn         1 3FW       0.349300
@<TRIPOS>BOND
     1     1     2 1   
     2     1     6 1   
     3     1    11 1   
     4     1    12 1   
     5     2     5 ar  
     6     2     7 ar  
     7     3     7 ar  
     8     3     8 ar  
     9     3     9 1   
    10     4     5 ar  
    11     4     8 ar  
    12     4    13 1   
    13     5    14 1   
    14     6    15 1   
    15     6    18 1   
    16     9    10 2   
    17     9    16 1   
    18    10    17 1   
@<TRIPOS>SUBSTRUCTURE
     1 3FW         1 TEMP              0 ****  ****    0 ROOT
