@<TRIPOS>MOLECULE
3FX
   33    33     1     0     0
SMALL
abcg2


@<TRIPOS>ATOM
      1 OAA         -3.7880    -1.4650    -0.0440 o          1 3FX      -0.693200
      2 OAB         -4.5830     0.4770    -1.3320 o          1 3FX      -0.693200
      3 OAC         -1.0970    -0.0330     1.4700 oh         1 3FX      -0.659000
      4 OAD         -3.9550     0.7540     1.0250 o          1 3FX      -0.693200
      5 CAE          5.6910     0.3530    -0.0130 c6         1 3FX      -0.074400
      6 CAF          5.2100    -1.0940     0.0290 c6         1 3FX      -0.070900
      7 CAG          4.7240     1.2240    -0.8060 c6         1 3FX      -0.070900
      8 CAH          3.7860    -1.1970     0.5640 c6         1 3FX      -0.092400
      9 CAI          3.3040     1.1230    -0.2550 c6         1 3FX      -0.092400
     10 CAJ          0.4150     0.1660    -0.4130 c3         1 3FX       0.132800
     11 CAK         -2.0460     0.3680    -0.7520 c3         1 3FX      -0.396400
     12 NAL          1.4700    -0.5130     0.3080 n7         1 3FX      -0.862400
     13 CAM         -0.9550    -0.2810     0.0870 c3         1 3FX       0.214300
     14 CAN          2.8100    -0.3280    -0.2250 c6         1 3FX       0.177500
     15 SAO         -3.7320    -0.0010    -0.2240 s6         1 3FX       1.326600
     16 HOAC        -1.3450     0.8880     1.5960 ho         1 3FX       0.444000
     17 HAF          5.2460    -1.5130    -0.9830 hc         1 3FX       0.032450
     18 HAFA         5.8830    -1.7020     0.6390 hc         1 3FX       0.032450
     19 HAG          5.0550     2.2650    -0.8020 hc         1 3FX       0.032450
     20 HAGA         4.7260     0.9050    -1.8550 hc         1 3FX       0.032450
     21 HAH          3.4460    -2.2350     0.5450 hc         1 3FX       0.042950
     22 HAHA         3.7710    -0.8810     1.6150 hc         1 3FX       0.042950
     23 HAI          3.2790     1.5230     0.7670 hc         1 3FX       0.042950
     24 HAIA         2.6320     1.7440    -0.8520 hc         1 3FX       0.042950
     25 HAJ          0.4700     1.2650    -0.3540 h1         1 3FX       0.020700
     26 HAJA         0.5040    -0.0870    -1.4740 h1         1 3FX       0.020700
     27 HAK         -1.9440     1.4580    -0.7580 h1         1 3FX       0.068700
     28 HAKA        -1.9530     0.0300    -1.7860 h1         1 3FX       0.068700
     29 HNAL         1.4510    -0.2200     1.2780 hn         1 3FX       0.417000
     30 HAM         -1.0210    -1.3670    -0.0290 h1         1 3FX       0.091700
     31 HAN          2.7930    -0.6950    -1.2610 h1         1 3FX       0.050700
     32 HAE          5.7740     0.7400     1.0080 hc         1 3FX       0.031200
     33 HAEA         6.6930     0.4040    -0.4460 hc         1 3FX       0.031200
@<TRIPOS>BOND
     1     1    15 1   
     2     2    15 1   
     3     3    13 1   
     4     3    16 1   
     5     4    15 1   
     6     5     6 1   
     7     5     7 1   
     8     5    32 1   
     9     5    33 1   
    10     6     8 1   
    11     6    17 1   
    12     6    18 1   
    13     7     9 1   
    14     7    19 1   
    15     7    20 1   
    16     8    14 1   
    17     8    21 1   
    18     8    22 1   
    19     9    14 1   
    20     9    23 1   
    21     9    24 1   
    22    10    12 1   
    23    10    13 1   
    24    10    25 1   
    25    10    26 1   
    26    11    13 1   
    27    11    15 1   
    28    11    27 1   
    29    11    28 1   
    30    12    14 1   
    31    12    29 1   
    32    13    30 1   
    33    14    31 1   
@<TRIPOS>SUBSTRUCTURE
     1 3FX         1 TEMP              0 ****  ****    0 ROOT
