@<TRIPOS>MOLECULE
3FX
   33    33     1     0     0
SMALL
No Charge or Current Charge


@<TRIPOS>ATOM
      1 OAA         -3.7770    -1.4860    -0.2640 o          1 3FX      -0.693200
      2 OAB         -4.7010     0.6890    -0.9960 o          1 3FX      -0.693200
      3 OAC         -0.9850     0.5820     1.3460 oh         1 3FX      -0.659000
      4 OAD         -3.7310     0.4560     1.2700 o          1 3FX      -0.693200
      5 CAE          5.7630     0.3410     0.0840 c6         1 3FX      -0.074400
      6 CAF          5.2870    -1.1320     0.0490 c6         1 3FX      -0.070900
      7 CAG          4.8170     1.2500    -0.7370 c6         1 3FX      -0.070900
      8 CAH          3.8220    -1.2580     0.5360 c6         1 3FX      -0.092400
      9 CAI          3.3500     1.1210    -0.2540 c6         1 3FX      -0.092400
     10 CAJ          0.3800     0.0350    -0.6170 c3         1 3FX       0.132800
     11 CAK         -2.1500     0.4520    -0.7470 c3         1 3FX      -0.396400
     12 NAL          1.4870    -0.4970     0.2130 n7         1 3FX      -0.862400
     13 CAM         -0.9990    -0.1180     0.0940 c3         1 3FX       0.214300
     14 CAN          2.8670    -0.3580    -0.2930 c6         1 3FX       0.177500
     15 SAO         -3.7640    -0.0250    -0.1190 s6         1 3FX       1.326600
     16 HOAC        -1.9380     0.6600     1.5990 ho         1 3FX       0.444000
     17 HAF          5.3730    -1.5250    -0.9730 hc         1 3FX       0.032450
     18 HAFA         5.9430    -1.7500     0.6780 hc         1 3FX       0.032450
     19 HAG          5.1450     2.2960    -0.6580 hc         1 3FX       0.032450
     20 HAGA         4.8800     0.9840    -1.8020 hc         1 3FX       0.032450
     21 HAH          3.5020    -2.3060     0.4640 hc         1 3FX       0.042950
     22 HAHA         3.7650    -0.9860     1.5990 hc         1 3FX       0.042950
     23 HAI          3.2640     1.5170     0.7670 hc         1 3FX       0.042950
     24 HAIA         2.7110     1.7490    -0.8880 hc         1 3FX       0.042950
     25 HAJ          0.5380     1.1000    -0.8320 h1         1 3FX       0.020700
     26 HAJA         0.3460    -0.4920    -1.5800 h1         1 3FX       0.020700
     27 HAK         -2.1170     1.5460    -0.7670 h1         1 3FX       0.068700
     28 HAKA        -2.1000     0.0700    -1.7720 h1         1 3FX       0.068700
     29 HNAL         1.4200    -0.0430     1.1320 hn         1 3FX       0.417000
     30 HAM         -1.1690    -1.1940     0.2560 h1         1 3FX       0.091700
     31 HAN          2.8960    -0.7080    -1.3370 h1         1 3FX       0.050700
     32 HAE          5.8040     0.6920     1.1240 hc         1 3FX       0.031200
     33 HAEA         6.7850     0.4120    -0.3110 hc         1 3FX       0.031200
@<TRIPOS>BOND
     1     1    15 1   
     2     2    15 1   
     3     3    13 1   
     4     3    16 1   
     5     4    15 1   
     6     5     6 1   
     7     5     7 1   
     8     5    32 1   
     9     5    33 1   
    10     6     8 1   
    11     6    17 1   
    12     6    18 1   
    13     7     9 1   
    14     7    19 1   
    15     7    20 1   
    16     8    14 1   
    17     8    21 1   
    18     8    22 1   
    19     9    14 1   
    20     9    23 1   
    21     9    24 1   
    22    10    12 1   
    23    10    13 1   
    24    10    25 1   
    25    10    26 1   
    26    11    13 1   
    27    11    15 1   
    28    11    27 1   
    29    11    28 1   
    30    12    14 1   
    31    12    29 1   
    32    13    30 1   
    33    14    31 1   
@<TRIPOS>SUBSTRUCTURE
     1 3FX         1 TEMP              0 ****  ****    0 ROOT
