@<TRIPOS>MOLECULE
3FY
   64    67     1     0     0
SMALL
bcc


@<TRIPOS>ATOM
      1 CAA          2.7580    -0.8120     3.5630 c3         1 3FY      -0.050800
      2 CAB          4.8030    -1.7210    -3.6860 c3         1 3FY       0.022600
      3 CAC          1.6040     4.4890     1.2110 c3         1 3FY       0.029600
      4 OAD         -0.2460     0.7410    -1.5010 o          1 3FY      -0.602300
      5 OAE         -0.1810    -1.7720    -1.4560 o          1 3FY      -0.602300
      6 CAG          5.0920    -2.7020     1.2720 ca         1 3FY      -0.117000
      7 CAH          4.2480    -3.1500     0.2650 ca         1 3FY      -0.137000
      8 CAI          4.5740    -1.9530     2.3140 ca         1 3FY      -0.135000
      9 CAJ         -4.4490     0.8770     0.1820 ca         1 3FY      -0.057500
     10 CAK         -3.4440    -1.0530     1.1780 ca         1 3FY      -0.057500
     11 CAL          2.9060    -2.8190     0.3110 ca         1 3FY      -0.114000
     12 CAM         -3.3620     1.6420     0.5760 ca         1 3FY      -0.203500
     13 CAN         -2.3640    -0.2870     1.5720 ca         1 3FY      -0.203500
     14 CAO         -1.1440     3.8680    -1.0100 cc         1 3FY       0.357200
     15 CAP          0.8330     4.6220    -1.1430 cd         1 3FY       0.400400
     16 CAQ          4.0080     0.0980    -2.1640 cc         1 3FY       0.390400
     17 CAR          2.5350    -1.4320    -2.6710 cc         1 3FY      -0.134600
     18 CAS          0.0010     1.2760     2.2110 c3         1 3FY       0.227800
     19 CAT          0.9880     0.8270     1.1340 c3         1 3FY       0.186800
     20 CAU          0.9140    -1.6650     1.2560 c3         1 3FY       0.257100
     21 CAV         -1.2300     3.2960     1.5400 c3         1 3FY       0.311100
     22 NAW         -0.2240     4.3780    -1.8740 nc         1 3FY      -0.665000
     23 NAX          2.9350     0.4560    -1.5110 nd         1 3FY      -0.610000
     24 CAY          3.2220    -1.6060     2.3710 ca         1 3FY      -0.053300
     25 CAZ         -4.4920    -0.4730     0.4790 ca         1 3FY      -0.066900
     26 CBA         -2.2810     1.0870     1.2830 ca         1 3FY       0.228600
     27 CBB          2.3790    -2.0260     1.3330 ca         1 3FY      -0.112300
     28 CBC         -0.6380     3.8000     0.2600 cd         1 3FY      -0.270900
     29 CBD          2.0180    -0.4950    -1.8210 cd         1 3FY       0.068200
     30 NBE         -1.2280     1.8560     1.7180 nh         1 3FY      -0.686000
     31 NBF          0.6170    -0.4390     0.5140 n3         1 3FY      -0.749500
     32 NBG          3.8140    -1.0320    -2.8830 na         1 3FY      -0.173900
     33 NBH          0.6400     4.2960     0.1520 na         1 3FY      -0.189900
     34 SBI          0.4190    -0.4890    -1.1150 sy         1 3FY       1.293800
     35 HAA          3.0390     0.2390     3.4780 hc         1 3FY       0.042367
     36 HAAA         1.6820    -0.8480     3.7180 hc         1 3FY       0.042367
     37 HAAB         3.2260    -1.1880     4.4730 hc         1 3FY       0.042367
     38 HAB          5.0710    -2.6700    -3.2260 h1         1 3FY       0.058700
     39 HABA         4.4170    -1.9020    -4.6850 h1         1 3FY       0.058700
     40 HABB         5.6920    -1.1020    -3.7590 h1         1 3FY       0.058700
     41 HAC          1.1770     5.0680     2.0270 h1         1 3FY       0.047367
     42 HACA         1.9650     3.5400     1.6030 h1         1 3FY       0.047367
     43 HACB         2.4550     5.0370     0.8160 h1         1 3FY       0.047367
     44 HAG          6.1450    -2.9520     1.2560 ha         1 3FY       0.130000
     45 HAH          4.6290    -3.7610    -0.5430 ha         1 3FY       0.127000
     46 HAI          5.2300    -1.6310     3.1150 ha         1 3FY       0.129000
     47 HAJ         -5.2500     1.3570    -0.3640 ha         1 3FY       0.140500
     48 HAK         -3.4540    -2.1060     1.4290 ha         1 3FY       0.140500
     49 HAL          2.2430    -3.1960    -0.4580 ha         1 3FY       0.137000
     50 HAM         -3.3790     2.6870     0.3050 ha         1 3FY       0.131000
     51 HAN         -1.5790    -0.7900     2.1150 ha         1 3FY       0.131000
     52 HAO         -2.1220     3.5570    -1.3450 h4         1 3FY       0.042100
     53 HAP          1.7630     5.0460    -1.4910 h5         1 3FY       0.048100
     54 HAQ          4.9540     0.6180    -2.1590 h5         1 3FY       0.057100
     55 HAR          2.1190    -2.3220    -3.1120 h4         1 3FY       0.197000
     56 HAS         -0.2110     0.4640     2.9110 h1         1 3FY       0.045200
     57 HASA         0.5010     2.0340     2.8190 h1         1 3FY       0.045200
     58 HAT          1.0620     1.5960     0.3690 h1         1 3FY       0.068700
     59 HATA         1.9880     0.7380     1.5650 h1         1 3FY       0.068700
     60 HAU          0.3510    -2.4820     0.8080 h1         1 3FY       0.070700
     61 HAUA         0.4920    -1.5400     2.2530 h1         1 3FY       0.070700
     62 HAV         -0.6950     3.7280     2.3890 h1         1 3FY       0.054200
     63 HAVA        -2.2500     3.6660     1.6410 h1         1 3FY       0.054200
     64 BRAF        -5.9650    -1.5250    -0.0710 br         1 3FY      -0.114100
@<TRIPOS>BOND
     1     1    24 1   
     2     1    35 1   
     3     1    36 1   
     4     1    37 1   
     5     2    32 1   
     6     2    38 1   
     7     2    39 1   
     8     2    40 1   
     9     3    33 1   
    10     3    41 1   
    11     3    42 1   
    12     3    43 1   
    13     4    34 2   
    14     5    34 2   
    15     6     7 ar  
    16     6     8 ar  
    17     6    44 1   
    18     7    11 ar  
    19     7    45 1   
    20     8    24 ar  
    21     8    46 1   
    22     9    12 ar  
    23     9    25 ar  
    24     9    47 1   
    25    10    13 ar  
    26    10    25 ar  
    27    10    48 1   
    28    11    27 ar  
    29    11    49 1   
    30    12    26 ar  
    31    12    50 1   
    32    13    26 ar  
    33    13    51 1   
    34    14    22 1   
    35    14    28 2   
    36    14    52 1   
    37    15    22 2   
    38    15    33 1   
    39    15    53 1   
    40    16    23 2   
    41    16    32 1   
    42    16    54 1   
    43    17    29 2   
    44    17    32 1   
    45    17    55 1   
    46    18    19 1   
    47    18    30 1   
    48    18    56 1   
    49    18    57 1   
    50    19    31 1   
    51    19    58 1   
    52    19    59 1   
    53    20    27 1   
    54    20    31 1   
    55    20    60 1   
    56    20    61 1   
    57    21    28 1   
    58    21    30 1   
    59    21    62 1   
    60    21    63 1   
    61    23    29 1   
    62    24    27 ar  
    63    25    64 1   
    64    26    30 1   
    65    28    33 1   
    66    29    34 1   
    67    31    34 1   
@<TRIPOS>SUBSTRUCTURE
     1 3FY         1 TEMP              0 ****  ****    0 ROOT
