@<TRIPOS>MOLECULE
3FY
   64    67     1     0     0
SMALL
No Charge or Current Charge


@<TRIPOS>ATOM
      1 CAA          2.7520    -0.8090     2.9220 c3         1 3FY      -0.050800
      2 CAB          5.4130    -1.9230    -3.0210 c3         1 3FY       0.051900
      3 CAC          0.9430     5.5210     1.9520 c3         1 3FY       0.058900
      4 OAD         -0.2410     0.6390    -2.2830 o          1 3FY      -0.531500
      5 OAE         -0.0850    -1.8830    -1.9890 o          1 3FY      -0.531500
      6 CAG          4.4510    -3.4640     0.7700 ca         1 3FY      -0.099000
      7 CAH          3.4290    -3.8560    -0.1020 ca         1 3FY      -0.119000
      8 CAI          4.2070    -2.4630     1.7200 ca         1 3FY      -0.117000
      9 CAJ         -3.9920     0.0930     0.2520 ca         1 3FY      -0.039500
     10 CAK         -3.2340    -1.0120     2.2840 ca         1 3FY      -0.039500
     11 CAL          2.1790    -3.2230    -0.0440 ca         1 3FY      -0.096000
     12 CAM         -2.9920     1.0680     0.4130 ca         1 3FY      -0.185500
     13 CAN         -2.2360    -0.0350     2.4380 ca         1 3FY      -0.185500
     14 CAO         -0.7080     3.9830    -0.8870 cc         1 3FY       0.291900
     15 CAP          0.8740     5.4130    -0.5900 cd         1 3FY       0.400400
     16 CAQ          4.3150     0.1810    -2.1180 cc         1 3FY       0.390400
     17 CAR          2.9530    -1.5260    -2.5410 cc         1 3FY      -0.102000
     18 CAS          0.3350     1.5530     1.7850 c3         1 3FY       0.227800
     19 CAT          0.9720     0.9520     0.4950 c3         1 3FY       0.186800
     20 CAU          0.5330    -1.5190     0.8530 c3         1 3FY       0.257100
     21 CAV         -1.3840     3.4140     1.5520 c3         1 3FY       0.311100
     22 NAW          0.1870     4.7880    -1.5380 nc         1 3FY      -0.665000
     23 NAX          3.1070     0.6030    -1.7760 nd         1 3FY      -0.610000
     24 CAY          2.9520    -1.8230     1.7980 ca         1 3FY      -0.053300
     25 CAZ         -4.1100    -0.9470     1.1880 ca         1 3FY      -0.066900
     26 CBA         -2.1040     1.0080     1.5030 ca         1 3FY       0.367000
     27 CBB          1.9290    -2.1720     0.8680 ca         1 3FY      -0.112300
     28 CBC         -0.5930     4.1050     0.4700 cd         1 3FY      -0.256300
     29 CBD          2.2420    -0.4710    -2.0160 cd         1 3FY       0.002900
     30 NBE         -1.0870     1.9730     1.6560 nh         1 3FY      -0.824400
     31 NBF          0.3660    -0.3140    -0.0080 n3         1 3FY      -0.749500
     32 NBG          4.2670    -1.1160    -2.5820 na         1 3FY      -0.152500
     33 NBH          0.4280     5.0260     0.6660 na         1 3FY      -0.168500
     34 SBI          0.4310    -0.5360    -1.7080 sy         1 3FY       1.152200
     35 HAA          2.9140     0.2170     2.5770 hc         1 3FY       0.042367
     36 HAAA         1.7550    -0.8780     3.3710 hc         1 3FY       0.042367
     37 HAAB         3.4630    -0.9810     3.7390 hc         1 3FY       0.042367
     38 HAB          5.6740    -2.6450    -2.2370 h1         1 3FY       0.058700
     39 HABA         5.1530    -2.4640    -3.9390 h1         1 3FY       0.058700
     40 HABB         6.2760    -1.2740    -3.2170 h1         1 3FY       0.058700
     41 HAC          0.1430     6.0420     2.4920 h1         1 3FY       0.047367
     42 HACA         1.3010     4.6790     2.5570 h1         1 3FY       0.047367
     43 HACB         1.7730     6.2180     1.7790 h1         1 3FY       0.047367
     44 HAG          5.4230    -3.9510     0.7270 ha         1 3FY       0.112000
     45 HAH          3.6050    -4.6500    -0.8240 ha         1 3FY       0.109000
     46 HAI          4.9990    -2.1920     2.4140 ha         1 3FY       0.111000
     47 HAJ         -4.6690     0.1430    -0.5980 ha         1 3FY       0.122500
     48 HAK         -3.3280    -1.8160     3.0110 ha         1 3FY       0.122500
     49 HAL          1.3970    -3.5530    -0.7230 ha         1 3FY       0.119000
     50 HAM         -2.8960     1.8600    -0.3220 ha         1 3FY       0.113000
     51 HAN         -1.5670    -0.0860     3.2910 ha         1 3FY       0.113000
     52 HAO         -1.3900     3.3600    -1.4500 h4         1 3FY       0.042100
     53 HAP          1.6720     6.1330    -0.7280 h5         1 3FY       0.048100
     54 HAQ          5.2380     0.7450    -2.0540 h5         1 3FY       0.057100
     55 HAR          2.6290    -2.5120    -2.8530 h4         1 3FY       0.179000
     56 HAS          0.4300     0.8340     2.6050 h1         1 3FY       0.045200
     57 HASA         0.9440     2.4180     2.0800 h1         1 3FY       0.045200
     58 HAT          0.8940     1.7360    -0.2690 h1         1 3FY       0.068700
     59 HATA         2.0450     0.8100     0.6660 h1         1 3FY       0.068700
     60 HAU         -0.1920    -2.2840     0.5420 h1         1 3FY       0.070700
     61 HAUA         0.2410    -1.2820     1.8820 h1         1 3FY       0.070700
     62 HAV         -1.1850     3.8950     2.5190 h1         1 3FY       0.054200
     63 HAVA        -2.4520     3.5690     1.3480 h1         1 3FY       0.054200
     64 BrAF        -5.4660    -2.2770     0.9700 br         1 3FY      -0.114100
@<TRIPOS>BOND
     1     1    24 1   
     2     1    35 1   
     3     1    36 1   
     4     1    37 1   
     5     2    32 1   
     6     2    38 1   
     7     2    39 1   
     8     2    40 1   
     9     3    33 1   
    10     3    41 1   
    11     3    42 1   
    12     3    43 1   
    13     4    34 2   
    14     5    34 2   
    15     6     7 ar  
    16     6     8 ar  
    17     6    44 1   
    18     7    11 ar  
    19     7    45 1   
    20     8    24 ar  
    21     8    46 1   
    22     9    12 ar  
    23     9    25 ar  
    24     9    47 1   
    25    10    13 ar  
    26    10    25 ar  
    27    10    48 1   
    28    11    27 ar  
    29    11    49 1   
    30    12    26 ar  
    31    12    50 1   
    32    13    26 ar  
    33    13    51 1   
    34    14    22 1   
    35    14    28 2   
    36    14    52 1   
    37    15    22 2   
    38    15    33 1   
    39    15    53 1   
    40    16    23 2   
    41    16    32 1   
    42    16    54 1   
    43    17    29 2   
    44    17    32 1   
    45    17    55 1   
    46    18    19 1   
    47    18    30 1   
    48    18    56 1   
    49    18    57 1   
    50    19    31 1   
    51    19    58 1   
    52    19    59 1   
    53    20    27 1   
    54    20    31 1   
    55    20    60 1   
    56    20    61 1   
    57    21    28 1   
    58    21    30 1   
    59    21    62 1   
    60    21    63 1   
    61    23    29 1   
    62    24    27 ar  
    63    25    64 1   
    64    26    30 1   
    65    28    33 1   
    66    29    34 1   
    67    31    34 1   
@<TRIPOS>SUBSTRUCTURE
     1 3FY         1 TEMP              0 ****  ****    0 ROOT
