@<TRIPOS>MOLECULE
3FZ
   19    19     1     0     0
SMALL
abcg2


@<TRIPOS>ATOM
      1 O            3.7390    -0.7260     0.3140 o          1 3FZ      -0.512100
      2 N1          -3.3030     0.3140     0.3610 nv         1 3FZ      -1.031200
      3 C2          -0.9510     0.1080    -0.1010 ca         1 3FZ      -0.209900
      4 N2          -2.5900    -1.6440    -0.6000 n2         1 3FZ      -0.841100
      5 C3          -0.7540     1.4750    -0.2850 ca         1 3FZ      -0.055000
      6 C4           0.5280     2.0140    -0.2920 ca         1 3FZ      -0.129000
      7 C5           1.6280     1.1970    -0.1060 ca         1 3FZ      -0.038000
      8 C6           1.4410    -0.1720     0.0870 ca         1 3FZ      -0.202600
      9 C7           2.5830    -1.0770     0.2980 c          1 3FZ       0.583500
     10 C8           0.1600    -0.7090     0.0840 ca         1 3FZ      -0.053000
     11 HN1         -3.0720     0.9700     1.0900 hn         1 3FZ       0.470000
     12 HN1A        -4.2110    -0.1120     0.4630 hn         1 3FZ       0.470000
     13 HN2         -1.7700    -2.0690    -1.0180 hn         1 3FZ       0.389400
     14 H3          -1.6020     2.1290    -0.4420 ha         1 3FZ       0.127000
     15 H4           0.6610     3.0770    -0.4440 ha         1 3FZ       0.123000
     16 H5           2.6260     1.6150    -0.1080 ha         1 3FZ       0.136000
     17 H7           2.3080    -2.1360     0.4440 h4         1 3FZ      -0.008800
     18 H8           0.0310    -1.7730     0.2450 ha         1 3FZ       0.120000
     19 C1          -2.3170    -0.4900    -0.1250 ce         1 3FZ       0.662800
@<TRIPOS>BOND
     1     1     9 2   
     2     2    11 1   
     3     2    12 1   
     4     2    19 1   
     5     3     5 ar  
     6     3    10 ar  
     7     3    19 1   
     8     4    13 1   
     9     4    19 2   
    10     5     6 ar  
    11     5    14 1   
    12     6     7 ar  
    13     6    15 1   
    14     7     8 ar  
    15     7    16 1   
    16     8     9 1   
    17     8    10 ar  
    18     9    17 1   
    19    10    18 1   
@<TRIPOS>SUBSTRUCTURE
     1 3FZ         1 TEMP              0 ****  ****    0 ROOT
