@<TRIPOS>MOLECULE
3FZ
   19    19     1     0     0
SMALL
No Charge or Current Charge


@<TRIPOS>ATOM
      1 O            3.7880    -0.7250     0.3120 o          1 3FZ      -0.512100
      2 N1          -3.3710     0.3040     0.2990 nv         1 3FZ      -1.031200
      3 C2          -0.9830     0.1220    -0.1090 ca         1 3FZ      -0.209900
      4 N2          -2.6100    -1.6460    -0.5030 n2         1 3FZ      -0.841100
      5 C3          -0.7670     1.5070    -0.2920 ca         1 3FZ      -0.055000
      6 C4           0.5330     2.0370    -0.2710 ca         1 3FZ      -0.129000
      7 C5           1.6390     1.1940    -0.0810 ca         1 3FZ      -0.038000
      8 C6           1.4480    -0.1930     0.0830 ca         1 3FZ      -0.202600
      9 C7           2.6240    -1.1130     0.2810 c          1 3FZ       0.583500
     10 C8           0.1410    -0.7220     0.0600 ca         1 3FZ      -0.053000
     11 HN1         -3.0980     1.0230     0.9580 hn         1 3FZ       0.470000
     12 HN1A        -4.2010    -0.2240     0.5400 hn         1 3FZ       0.470000
     13 HN2         -1.7490    -2.0470    -0.8950 hn         1 3FZ       0.389400
     14 H3          -1.6060     2.1800    -0.4620 ha         1 3FZ       0.127000
     15 H4           0.6850     3.1050    -0.4080 ha         1 3FZ       0.123000
     16 H5           2.6410     1.6210    -0.0680 ha         1 3FZ       0.136000
     17 H7           2.3820    -2.1920     0.4020 h4         1 3FZ      -0.008800
     18 H8           0.0020    -1.7940     0.1930 ha         1 3FZ       0.120000
     19 C1          -2.3620    -0.4470    -0.1740 ce         1 3FZ       0.662800
@<TRIPOS>BOND
     1     1     9 2   
     2     2    11 1   
     3     2    12 1   
     4     2    19 1   
     5     3     5 ar  
     6     3    10 ar  
     7     3    19 1   
     8     4    13 1   
     9     4    19 2   
    10     5     6 ar  
    11     5    14 1   
    12     6     7 ar  
    13     6    15 1   
    14     7     8 ar  
    15     7    16 1   
    16     8     9 1   
    17     8    10 ar  
    18     9    17 1   
    19    10    18 1   
@<TRIPOS>SUBSTRUCTURE
     1 3FZ         1 TEMP              0 ****  ****    0 ROOT
