@<TRIPOS>MOLECULE
3G1
   29    30     1     0     0
SMALL
bcc


@<TRIPOS>ATOM
      1 C1           1.6490     0.5920     0.1830 ca         1 3G1      -0.035500
      2 C2           2.4020    -0.5590    -0.0560 ca         1 3G1      -0.079600
      3 C3           3.7170    -0.4020    -0.4870 ca         1 3G1      -0.123000
      4 C4           4.2670     0.8560    -0.6810 ca         1 3G1      -0.131000
      5 C6           2.1950     1.8560     0.0100 ca         1 3G1      -0.100000
      6 C8          -0.8810     0.2420    -0.8050 c3         1 3G1       0.028200
      7 C10         -2.8560    -1.2100    -0.2990 ca         1 3G1      -0.117500
      8 C11         -4.2070    -1.3820    -0.0350 ca         1 3G1      -0.140500
      9 C12         -5.0600    -0.2850    -0.0190 ca         1 3G1      -0.150000
     10 C13         -4.5530     0.9840    -0.2640 ca         1 3G1      -0.140500
     11 C14         -3.2000     1.1560    -0.5260 ca         1 3G1      -0.117500
     12 O2           0.6220    -1.9900     0.4670 o          1 3G1      -0.823800
     13 C7           1.8300    -1.9510     0.1470 c          1 3G1       0.922200
     14 O3           2.5920    -2.9160    -0.0170 o          1 3G1      -0.823800
     15 C5           3.5030     1.9880    -0.4330 ca         1 3G1      -0.170000
     16 S1          -0.0500     0.5370     0.8110 sx         1 3G1       0.291400
     17 O1          -0.4050     1.9740     1.1290 o          1 3G1      -0.569200
     18 C9          -2.3410     0.0600    -0.5560 ca         1 3G1      -0.045300
     19 H1           4.3100    -1.2880    -0.6710 ha         1 3G1       0.146000
     20 H2           5.2900     0.9540    -1.0210 ha         1 3G1       0.106000
     21 H3           1.6010     2.7350     0.2200 ha         1 3G1       0.145000
     22 H4          -0.6730     1.1320    -1.4020 h1         1 3G1       0.090700
     23 H5          -0.4290    -0.6260    -1.2730 h1         1 3G1       0.090700
     24 H8          -6.1150    -0.4190     0.1820 ha         1 3G1       0.111000
     25 H9          -5.2120     1.8430    -0.2500 ha         1 3G1       0.116500
     26 H10         -2.8110     2.1480    -0.7220 ha         1 3G1       0.149500
     27 H12          3.9240     2.9740    -0.5770 ha         1 3G1       0.105000
     28 H6          -2.1910    -2.0640    -0.3060 ha         1 3G1       0.149500
     29 H7          -4.5960    -2.3740     0.1570 ha         1 3G1       0.116500
@<TRIPOS>BOND
     1     1     2 ar  
     2     1     5 ar  
     3     1    16 1   
     4     2     3 ar  
     5     2    13 1   
     6     3     4 ar  
     7     3    19 1   
     8     4    15 ar  
     9     4    20 1   
    10     5    15 ar  
    11     5    21 1   
    12     6    16 1   
    13     6    18 1   
    14     6    22 1   
    15     6    23 1   
    16     7     8 ar  
    17     7    18 ar  
    18     7    28 1   
    19     8     9 ar  
    20     8    29 1   
    21     9    10 ar  
    22     9    24 1   
    23    10    11 ar  
    24    10    25 1   
    25    11    18 ar  
    26    11    26 1   
    27    12    13 1   
    28    13    14 1   
    29    15    27 1   
    30    16    17 2   
@<TRIPOS>SUBSTRUCTURE
     1 3G1         1 TEMP              0 ****  ****    0 ROOT
