@<TRIPOS>MOLECULE
3G1
   29    30     1     0     0
SMALL
No Charge or Current Charge


@<TRIPOS>ATOM
      1 C1           1.6960     0.4850     0.1870 ca         1 3G1      -0.035500
      2 C2           2.5720    -0.6210     0.0550 ca         1 3G1      -0.079600
      3 C3           3.8670    -0.4100    -0.4690 ca         1 3G1      -0.105000
      4 C4           4.2790     0.8720    -0.8670 ca         1 3G1      -0.113000
      5 C6           2.1160     1.7690    -0.2140 ca         1 3G1      -0.082000
      6 C8          -0.9210     0.3220    -0.7090 c3         1 3G1       0.028200
      7 C10         -2.9760    -1.1520    -0.4610 ca         1 3G1      -0.099500
      8 C11         -4.3580    -1.3210    -0.2700 ca         1 3G1      -0.122500
      9 C12         -5.1900    -0.2000    -0.1170 ca         1 3G1      -0.132000
     10 C13         -4.6390     1.0920    -0.1550 ca         1 3G1      -0.122500
     11 C14         -3.2560     1.2620    -0.3450 ca         1 3G1      -0.099500
     12 O2           1.1450    -2.4920    -0.0320 o          1 3G1      -0.718500
     13 C7           2.1560    -2.0160     0.4630 c          1 3G1       0.711600
     14 O3           2.8890    -2.6340     1.2220 o          1 3G1      -0.718500
     15 C5           3.4030     1.9610    -0.7420 ca         1 3G1      -0.152000
     16 S1           0.0120     0.2780     0.8990 sx         1 3G1       0.318200
     17 O1          -0.3250     1.5380     1.6860 o          1 3G1      -0.596000
     18 C9          -2.4180     0.1410    -0.5000 ca         1 3G1      -0.045300
     19 H1           4.5510    -1.2500    -0.5720 ha         1 3G1       0.128000
     20 H2           5.2770     1.0210    -1.2730 ha         1 3G1       0.088000
     21 H3           1.4450     2.6190    -0.1110 ha         1 3G1       0.127000
     22 H4          -0.7060     1.2830    -1.1910 h1         1 3G1       0.090700
     23 H5          -0.5220    -0.4850    -1.3350 h1         1 3G1       0.090700
     24 H8          -6.2600    -0.3310     0.0300 ha         1 3G1       0.093000
     25 H9          -5.2820     1.9610    -0.0350 ha         1 3G1       0.098500
     26 H10         -2.8360     2.2650    -0.3690 ha         1 3G1       0.131500
     27 H12          3.7230     2.9550    -1.0490 ha         1 3G1       0.087000
     28 H6          -2.3380    -2.0260    -0.5770 ha         1 3G1       0.131500
     29 H7          -4.7840    -2.3220    -0.2400 ha         1 3G1       0.098500
@<TRIPOS>BOND
     1     1     2 ar  
     2     1     5 ar  
     3     1    16 1   
     4     2     3 ar  
     5     2    13 1   
     6     3     4 ar  
     7     3    19 1   
     8     4    15 ar  
     9     4    20 1   
    10     5    15 ar  
    11     5    21 1   
    12     6    16 1   
    13     6    18 1   
    14     6    22 1   
    15     6    23 1   
    16     7     8 ar  
    17     7    18 ar  
    18     7    28 1   
    19     8     9 ar  
    20     8    29 1   
    21     9    10 ar  
    22     9    24 1   
    23    10    11 ar  
    24    10    25 1   
    25    11    18 ar  
    26    11    26 1   
    27    12    13 1   
    28    13    14 1   
    29    15    27 1   
    30    16    17 2   
@<TRIPOS>SUBSTRUCTURE
     1 3G1         1 TEMP              0 ****  ****    0 ROOT
