@<TRIPOS>MOLECULE
3G3
   27    29     1     0     0
SMALL
abcg2


@<TRIPOS>ATOM
      1 O18          0.7160    -2.1940    -0.5510 o          1 3G3      -0.481500
      2 C12          1.1570    -1.0860    -0.3880 c          1 3G3       0.586100
      3 C11          2.5510    -0.6720    -0.1020 ca         1 3G3      -0.146600
      4 C13          3.6930    -1.4290     0.0460 ca         1 3G3      -0.044500
      5 C14          4.8780    -0.7470     0.3160 ca         1 3G3      -0.097000
      6 C15          4.9000     0.6400     0.4290 ca         1 3G3      -0.097000
      7 C16          3.7370     1.3950     0.2780 ca         1 3G3      -0.044500
      8 C10          2.5720     0.7080     0.0130 ca         1 3G3      -0.146600
      9 N8           0.4140     0.0850    -0.4380 n          1 3G3      -0.400400
     10 C9           1.1930     1.2080    -0.1930 c          1 3G3       0.586100
     11 O17          0.7890     2.3420    -0.1650 o          1 3G3      -0.481500
     12 C7          -1.0080     0.1230    -0.6840 c3         1 3G3       0.116000
     13 C6          -1.8080    -0.0750     0.6040 c3         1 3G3      -0.127700
     14 C5          -3.2660     0.0000     0.3400 cc         1 3G3       0.393800
     15 N4          -3.9050     0.9460    -0.3080 nd         1 3G3      -0.385000
     16 N3          -5.1930     0.6030    -0.3000 nd         1 3G3      -0.041000
     17 N2          -5.3710    -0.4990     0.3160 nc         1 3G3      -0.202800
     18 N1          -4.1780    -0.8930     0.7220 na         1 3G3      -0.211700
     19 H13          3.6760    -2.5080    -0.0400 ha         1 3G3       0.140000
     20 H14          5.7970    -1.3040     0.4420 ha         1 3G3       0.124000
     21 H15          5.8360     1.1400     0.6410 ha         1 3G3       0.124000
     22 H16          3.7560     2.4730     0.3660 ha         1 3G3       0.140000
     23 H7          -1.2480     1.0830    -1.1380 h1         1 3G3       0.082700
     24 H7A         -1.2530    -0.6510    -1.4090 h1         1 3G3       0.082700
     25 H6          -1.5670    -1.0370     1.0560 hc         1 3G3       0.072700
     26 H6A         -1.5430     0.6990     1.3290 hc         1 3G3       0.072700
     27 HN1         -4.0630    -1.7530     1.2400 hn         1 3G3       0.387000
@<TRIPOS>BOND
     1     1     2 2   
     2     2     3 1   
     3     2     9 1   
     4     3     4 ar  
     5     3     8 ar  
     6     4     5 ar  
     7     4    19 1   
     8     5     6 ar  
     9     5    20 1   
    10     6     7 ar  
    11     6    21 1   
    12     7     8 ar  
    13     7    22 1   
    14     8    10 1   
    15     9    10 1   
    16     9    12 1   
    17    10    11 2   
    18    12    13 1   
    19    12    23 1   
    20    12    24 1   
    21    13    14 1   
    22    13    25 1   
    23    13    26 1   
    24    14    15 2   
    25    14    18 1   
    26    15    16 1   
    27    16    17 2   
    28    17    18 1   
    29    18    27 1   
@<TRIPOS>SUBSTRUCTURE
     1 3G3         1 TEMP              0 ****  ****    0 ROOT
