@<TRIPOS>MOLECULE
3G3
   27    29     1     0     0
SMALL
No Charge or Current Charge


@<TRIPOS>ATOM
      1 O18          0.7380    -2.2690    -0.4080 o          1 3G3      -0.481500
      2 C12          1.1610    -1.1280    -0.2880 c          1 3G3       0.586100
      3 C11          2.5680    -0.6930    -0.0550 ca         1 3G3      -0.146600
      4 C13          3.7360    -1.4540     0.0930 ca         1 3G3      -0.044500
      5 C14          4.9500    -0.7650     0.3020 ca         1 3G3      -0.097000
      6 C15          4.9760     0.6510     0.3590 ca         1 3G3      -0.097000
      7 C16          3.7890     1.4000     0.2070 ca         1 3G3      -0.044500
      8 C10          2.5940     0.6960     0.0010 ca         1 3G3      -0.146600
      9 N8           0.4220     0.0540    -0.3390 n          1 3G3      -0.400400
     10 C9           1.2040     1.2000    -0.1950 c          1 3G3       0.586100
     11 O17          0.8240     2.3620    -0.2240 o          1 3G3      -0.481500
     12 C7          -1.0270     0.0910    -0.6110 c3         1 3G3       0.116000
     13 C6          -1.8680     0.0510     0.6790 c3         1 3G3      -0.127700
     14 C5          -3.3430     0.0760     0.4040 cc         1 3G3       0.393800
     15 N4          -4.0700     1.1320     0.1100 nd         1 3G3      -0.385000
     16 N3          -5.3580     0.6810    -0.0700 nd         1 3G3      -0.041000
     17 N2          -5.4460    -0.6110     0.1000 nc         1 3G3      -0.202800
     18 N1          -4.1810    -1.0000     0.3990 na         1 3G3      -0.211700
     19 H13          3.7090    -2.5420     0.0470 ha         1 3G3       0.140000
     20 H14          5.8740    -1.3260     0.4210 ha         1 3G3       0.124000
     21 H15          5.9200     1.1670     0.5210 ha         1 3G3       0.124000
     22 H16          3.8010     2.4870     0.2480 ha         1 3G3       0.140000
     23 H7          -1.2660     1.0040    -1.1740 h1         1 3G3       0.082700
     24 H7A         -1.2970    -0.7620    -1.2490 h1         1 3G3       0.082700
     25 H6          -1.6120    -0.8490     1.2490 hc         1 3G3       0.072700
     26 H6A         -1.6010     0.9080     1.3080 hc         1 3G3       0.072700
     27 HN1         -3.9370    -1.9650     0.5850 hn         1 3G3       0.387000
@<TRIPOS>BOND
     1     1     2 2   
     2     2     3 1   
     3     2     9 1   
     4     3     4 ar  
     5     3     8 ar  
     6     4     5 ar  
     7     4    19 1   
     8     5     6 ar  
     9     5    20 1   
    10     6     7 ar  
    11     6    21 1   
    12     7     8 ar  
    13     7    22 1   
    14     8    10 1   
    15     9    10 1   
    16     9    12 1   
    17    10    11 2   
    18    12    13 1   
    19    12    23 1   
    20    12    24 1   
    21    13    14 1   
    22    13    25 1   
    23    13    26 1   
    24    14    15 2   
    25    14    18 1   
    26    15    16 1   
    27    16    17 2   
    28    17    18 1   
    29    18    27 1   
@<TRIPOS>SUBSTRUCTURE
     1 3G3         1 TEMP              0 ****  ****    0 ROOT
