@<TRIPOS>MOLECULE
3G4
   48    49     1     0     0
SMALL
bcc


@<TRIPOS>ATOM
      1 CL7          3.3950     2.8120    -1.8310 cl         1 3G4      -0.114400
      2 C1           2.1720     2.1590    -0.7890 ca         1 3G4      -0.004600
      3 C2           1.0100     2.8960    -0.6350 ca         1 3G4      -0.073000
      4 C3           0.0080     2.4280     0.1970 ca         1 3G4      -0.156000
      5 C4           0.1810     1.2360     0.8720 ca         1 3G4      -0.017000
      6 C6           2.3920     0.9400    -0.1380 ca         1 3G4       0.045700
      7 C8           3.6680     0.1830    -0.3580 c3         1 3G4      -0.064800
      8 C5           1.3570     0.5180     0.7060 ca         1 3G4      -0.237500
      9 S9           1.5140    -0.9510     1.7000 sy         1 3G4       1.312200
     10 O11          2.8240    -0.9750     2.3280 o          1 3G4      -0.602800
     11 O12          0.3400    -1.0460     2.5470 o          1 3G4      -0.602800
     12 N10          1.5480    -2.2090     0.6090 nu         1 3G4      -0.827800
     13 C13          0.4180    -2.5830    -0.1180 ca         1 3G4       0.681200
     14 N14         -0.4340    -1.6180    -0.3850 nb         1 3G4      -0.736000
     15 C18          0.2540    -3.8970    -0.5540 ca         1 3G4      -0.276300
     16 C17         -0.8750    -4.1710    -1.3030 ca         1 3G4      -0.058000
     17 C16         -1.7860    -3.1580    -1.5820 ca         1 3G4      -0.259300
     18 C15         -1.5220    -1.8870    -1.0980 ca         1 3G4       0.487600
     19 C19         -2.4120    -0.7160    -1.3770 c3         1 3G4      -0.209700
     20 C20         -3.1180    -0.2480    -0.1130 c          1 3G4       0.676100
     21 O22         -3.2690    -1.0220     0.8230 o          1 3G4      -0.583100
     22 N21         -3.5990     1.0120    -0.0890 n          1 3G4      -0.485800
     23 C23         -3.4580     1.9830    -1.1650 c3         1 3G4       0.101000
     24 C26         -4.5570     1.8950    -2.2110 c3         1 3G4      -0.113600
     25 C24         -4.3860     1.4490     1.0570 c3         1 3G4       0.101000
     26 C25         -3.5480     2.1440     2.1180 c3         1 3G4      -0.113600
     27 H2           0.8870     3.8320    -1.1640 ha         1 3G4       0.145000
     28 H3          -0.9020     2.9990     0.3190 ha         1 3G4       0.138000
     29 H4          -0.6030     0.8580     1.5110 ha         1 3G4       0.174000
     30 H8           4.4600     0.5720     0.2840 hc         1 3G4       0.062367
     31 H8A          3.5710    -0.8780    -0.1610 hc         1 3G4       0.062367
     32 H8B          4.0020     0.2900    -1.3880 hc         1 3G4       0.062367
     33 HN10         2.2150    -2.9330     0.8580 hn         1 3G4       0.456800
     34 H18          0.9760    -4.6650    -0.3130 ha         1 3G4       0.146000
     35 H17         -1.0480    -5.1760    -1.6650 ha         1 3G4       0.140000
     36 H16         -2.6740    -3.3540    -2.1670 ha         1 3G4       0.146000
     37 H19         -1.8080     0.0740    -1.8250 hc         1 3G4       0.073200
     38 H19A        -3.1760    -0.9760    -2.1150 hc         1 3G4       0.073200
     39 H23         -3.4680     2.9730    -0.7070 h1         1 3G4       0.050700
     40 H23A        -2.4790     1.8950    -1.6330 h1         1 3G4       0.050700
     41 H26         -4.4400     2.6940    -2.9430 hc         1 3G4       0.041867
     42 H26A        -4.5310     0.9460    -2.7470 hc         1 3G4       0.041867
     43 H26B        -5.5440     1.9990    -1.7580 hc         1 3G4       0.041867
     44 H24         -5.1600     2.1250     0.6910 h1         1 3G4       0.050700
     45 H24A        -4.9000     0.5920     1.4870 h1         1 3G4       0.050700
     46 H25         -2.8040     1.4680     2.5400 hc         1 3G4       0.041867
     47 H25A        -3.0300     3.0170     1.7160 hc         1 3G4       0.041867
     48 H25B        -4.1840     2.4900     2.9340 hc         1 3G4       0.041867
@<TRIPOS>BOND
     1     1     2 1   
     2     2     3 ar  
     3     2     6 ar  
     4     3     4 ar  
     5     3    27 1   
     6     4     5 ar  
     7     4    28 1   
     8     5     8 ar  
     9     5    29 1   
    10     6     7 1   
    11     6     8 ar  
    12     7    30 1   
    13     7    31 1   
    14     7    32 1   
    15     8     9 1   
    16     9    10 2   
    17     9    11 2   
    18     9    12 1   
    19    12    13 1   
    20    12    33 1   
    21    13    14 ar  
    22    13    15 ar  
    23    14    18 ar  
    24    15    16 ar  
    25    15    34 1   
    26    16    17 ar  
    27    16    35 1   
    28    17    18 ar  
    29    17    36 1   
    30    18    19 1   
    31    19    20 1   
    32    19    37 1   
    33    19    38 1   
    34    20    21 2   
    35    20    22 1   
    36    22    23 1   
    37    22    25 1   
    38    23    24 1   
    39    23    39 1   
    40    23    40 1   
    41    24    41 1   
    42    24    42 1   
    43    24    43 1   
    44    25    26 1   
    45    25    44 1   
    46    25    45 1   
    47    26    46 1   
    48    26    47 1   
    49    26    48 1   
@<TRIPOS>SUBSTRUCTURE
     1 3G4         1 TEMP              0 ****  ****    0 ROOT
