@<TRIPOS>MOLECULE
3G4
   48    49     1     0     0
SMALL
No Charge or Current Charge


@<TRIPOS>ATOM
      1 Cl7          1.4270     3.2710    -2.6160 cl         1 3G4      -0.206000
      2 C1           1.1780     2.5970    -1.0010 ca         1 3G4       0.087000
      3 C2           0.4330     3.3710    -0.0970 ca         1 3G4      -0.055000
      4 C3           0.1660     2.8910     1.1910 ca         1 3G4      -0.138000
      5 C4           0.6410     1.6320     1.5810 ca         1 3G4       0.001000
      6 C6           1.6950     1.3290    -0.6180 ca         1 3G4       0.045700
      7 C8           2.5200     0.5080    -1.6200 c3         1 3G4      -0.064800
      8 C5           1.4090     0.8450     0.6930 ca         1 3G4      -0.237500
      9 S9           2.0400    -0.7300     1.3270 sy         1 3G4       1.170600
     10 O11          3.5030    -0.7160     1.3020 o          1 3G4      -0.532000
     11 O12          1.3070    -1.1220     2.5330 o          1 3G4      -0.532000
     12 N10          1.6830    -1.9300     0.2330 nu         1 3G4      -0.883000
     13 C13          0.4420    -2.4340     0.0250 ca         1 3G4       0.615900
     14 N14         -0.3900    -1.6430    -0.6620 nb         1 3G4      -0.736000
     15 C18          0.1230    -3.7400     0.4230 ca         1 3G4      -0.193000
     16 C17         -1.1450    -4.2520     0.1200 ca         1 3G4      -0.040000
     17 C16         -2.0260    -3.4270    -0.5920 ca         1 3G4      -0.176000
     18 C15         -1.6120    -2.1330    -0.9620 ca         1 3G4       0.422300
     19 C19         -2.5170    -1.2390    -1.7730 c3         1 3G4      -0.209700
     20 C20         -3.5740    -0.6430    -0.8440 c          1 3G4       0.609100
     21 O22         -4.4940    -1.3530    -0.4610 o          1 3G4      -0.583100
     22 N21         -3.5080     0.7190    -0.4520 n          1 3G4      -0.418800
     23 C23         -2.3580     1.5960    -0.7700 c3         1 3G4       0.101000
     24 C26         -2.5580     2.3960    -2.0700 c3         1 3G4      -0.113600
     25 C24         -4.5720     1.3080     0.3960 c3         1 3G4       0.101000
     26 C25         -4.2330     1.2640     1.8980 c3         1 3G4      -0.113600
     27 H2           0.0530     4.3430    -0.4010 ha         1 3G4       0.127000
     28 H3          -0.4170     3.4920     1.8860 ha         1 3G4       0.120000
     29 H4           0.4220     1.2820     2.5890 ha         1 3G4       0.156000
     30 H8           3.3820     0.0240    -1.1530 hc         1 3G4       0.062367
     31 H8A          1.9050    -0.2710    -2.0840 hc         1 3G4       0.062367
     32 H8B          2.9400     1.1130    -2.4290 hc         1 3G4       0.062367
     33 HN10         2.3490    -2.6400     0.4860 hn         1 3G4       0.512000
     34 H18          0.8460    -4.3470     0.9590 ha         1 3G4       0.128000
     35 H17         -1.4320    -5.2600     0.4160 ha         1 3G4       0.122000
     36 H16         -3.0160    -3.7840    -0.8620 ha         1 3G4       0.128000
     37 H19         -1.9300    -0.4770    -2.2900 hc         1 3G4       0.073200
     38 H19A        -3.0260    -1.8520    -2.5250 hc         1 3G4       0.073200
     39 H23         -2.2330     2.3130     0.0500 h1         1 3G4       0.050700
     40 H23A        -1.4290     1.0140    -0.8170 h1         1 3G4       0.050700
     41 H26         -1.6930     3.0410    -2.2580 hc         1 3G4       0.041867
     42 H26A        -2.6780     1.7250    -2.9290 hc         1 3G4       0.041867
     43 H26B        -3.4490     3.0300    -2.0000 hc         1 3G4       0.041867
     44 H24         -4.7220     2.3550     0.0990 h1         1 3G4       0.050700
     45 H24A        -5.5240     0.7900     0.2220 h1         1 3G4       0.050700
     46 H25         -4.0940     0.2290     2.2300 hc         1 3G4       0.041867
     47 H25A        -3.3140     1.8230     2.1090 hc         1 3G4       0.041867
     48 H25B        -5.0470     1.7080     2.4830 hc         1 3G4       0.041867
@<TRIPOS>BOND
     1     1     2 1   
     2     2     3 ar  
     3     2     6 ar  
     4     3     4 ar  
     5     3    27 1   
     6     4     5 ar  
     7     4    28 1   
     8     5     8 ar  
     9     5    29 1   
    10     6     7 1   
    11     6     8 ar  
    12     7    30 1   
    13     7    31 1   
    14     7    32 1   
    15     8     9 1   
    16     9    10 2   
    17     9    11 2   
    18     9    12 1   
    19    12    13 1   
    20    12    33 1   
    21    13    14 ar  
    22    13    15 ar  
    23    14    18 ar  
    24    15    16 ar  
    25    15    34 1   
    26    16    17 ar  
    27    16    35 1   
    28    17    18 ar  
    29    17    36 1   
    30    18    19 1   
    31    19    20 1   
    32    19    37 1   
    33    19    38 1   
    34    20    21 2   
    35    20    22 1   
    36    22    23 1   
    37    22    25 1   
    38    23    24 1   
    39    23    39 1   
    40    23    40 1   
    41    24    41 1   
    42    24    42 1   
    43    24    43 1   
    44    25    26 1   
    45    25    44 1   
    46    25    45 1   
    47    26    46 1   
    48    26    47 1   
    49    26    48 1   
@<TRIPOS>SUBSTRUCTURE
     1 3G4         1 TEMP              0 ****  ****    0 ROOT
