@<TRIPOS>MOLECULE
3G5
   30    32     1     0     0
SMALL
No Charge or Current Charge


@<TRIPOS>ATOM
      1 CAI         -3.8720    -1.5800     0.3110 ca         1 3G5      -0.090000
      2 CAG         -5.2170    -1.1700     0.2960 ca         1 3G5      -0.103000
      3 CAR         -2.8240    -0.6810    -0.0010 ca         1 3G5      -0.112800
      4 OAC         -7.8950    -0.2240     0.2290 o          1 3G5      -0.712500
      5 OAA         -7.2880     1.7590    -0.3330 o          1 3G5      -0.712500
      6 CAH         -4.5350     1.0600    -0.3380 ca         1 3G5      -0.103000
      7 CAJ         -3.1900     0.6510    -0.3220 ca         1 3G5      -0.090000
      8 CAS         -0.8080    -2.3390     0.1890 cc         1 3G5      -0.104100
      9 CAW          0.8340    -0.0710    -0.1470 ca         1 3G5       0.204100
     10 OAM         -0.5380    -0.0050    -0.1590 os         1 3G5      -0.172200
     11 CAU          0.6680    -2.5270     0.2030 c          1 3G5       0.563900
     12 CAQ          1.5810     1.1110    -0.3160 ca         1 3G5      -0.071900
     13 BrF          0.6990     2.7970    -0.5570 br         1 3G5      -0.047100
     14 CAK          2.9850     1.0650    -0.3090 ca         1 3G5      -0.008000
     15 CAP         -5.5730     0.1560    -0.0300 ca         1 3G5      -0.097600
     16 CAL          2.8970    -1.3470     0.0340 ca         1 3G5       0.019000
     17 CAT         -1.3790    -1.0790     0.0050 cd         1 3G5       0.188900
     18 CAO          3.6400    -0.1660    -0.1340 ca         1 3G5      -0.079900
     19 CAV          1.4870    -1.2970     0.0280 ca         1 3G5      -0.240600
     20 H1          -3.6760    -2.6080     0.5850 ha         1 3G5       0.102500
     21 H2          -5.9880    -1.8960     0.5450 ha         1 3G5       0.133500
     22 H4          -4.7670     2.0910    -0.5940 ha         1 3G5       0.133500
     23 H5          -2.4390     1.3940    -0.5740 ha         1 3G5       0.102500
     24 H6           3.5630     1.9770    -0.4390 ha         1 3G5       0.141000
     25 H7           3.4180    -2.2940     0.1690 ha         1 3G5       0.150000
     26 H8          -0.8100    -4.2230     0.4430 ho         1 3G5       0.476000
     27 CAN         -7.0300     0.5970    -0.0450 c          1 3G5       0.709600
     28 OAB          1.1820    -3.6310     0.3510 o          1 3G5      -0.577100
     29 BrE          5.5520    -0.2340    -0.1240 br         1 3G5      -0.097100
     30 OAD         -1.4880    -3.5110     0.3480 oh         1 3G5      -0.506100
@<TRIPOS>BOND
     1     1     2 ar  
     2     1     3 ar  
     3     1    20 1   
     4     2    15 ar  
     5     2    21 1   
     6     3     7 ar  
     7     3    17 1   
     8     4    27 1   
     9     5    27 1   
    10     6     7 ar  
    11     6    15 ar  
    12     6    22 1   
    13     7    23 1   
    14     8    11 1   
    15     8    17 2   
    16     8    30 1   
    17     9    10 1   
    18     9    12 ar  
    19     9    19 ar  
    20    10    17 1   
    21    11    19 1   
    22    11    28 2   
    23    12    13 1   
    24    12    14 ar  
    25    14    18 ar  
    26    14    24 1   
    27    15    27 1   
    28    16    18 ar  
    29    16    19 ar  
    30    16    25 1   
    31    18    29 1   
    32    26    30 1   
@<TRIPOS>SUBSTRUCTURE
     1 3G5         1 TEMP              0 ****  ****    0 ROOT
