@<TRIPOS>MOLECULE
3G5
   30    32     1     0     0
SMALL
bcc


@<TRIPOS>ATOM
      1 CAI         -3.7230    -1.4070     0.6850 ca         1 3G5      -0.108000
      2 CAG         -5.0530    -1.0230     0.6710 ca         1 3G5      -0.121000
      3 CAR         -2.7650    -0.6540     0.0020 ca         1 3G5      -0.112800
      4 OAC         -7.7240    -0.2010     0.6050 o          1 3G5      -0.817800
      5 OAA         -7.2210     1.5430    -0.6920 o          1 3G5      -0.817800
      6 CAH         -4.5110     0.8580    -0.7000 ca         1 3G5      -0.121000
      7 CAJ         -3.1770     0.4920    -0.6850 ca         1 3G5      -0.108000
      8 CAS         -0.8280    -2.2760     0.0100 cc         1 3G5      -0.104100
      9 CAW          0.7880    -0.0520    -0.0250 ca         1 3G5       0.204100
     10 OAM         -0.5370     0.0590    -0.0050 os         1 3G5      -0.172200
     11 CAU          0.6080    -2.4950     0.0020 c          1 3G5       0.563900
     12 CAQ          1.5450     1.1260    -0.0540 ca         1 3G5      -0.071900
     13 BRF          0.6740     2.7830    -0.0760 br         1 3G5      -0.047100
     14 CAK          2.9200     1.0580    -0.0660 ca         1 3G5      -0.026000
     15 CAP         -5.4710     0.1090    -0.0240 ca         1 3G5      -0.097600
     16 CAL          2.8210    -1.3570    -0.0260 ca         1 3G5       0.001000
     17 CAT         -1.3490    -1.0230     0.0150 cd         1 3G5       0.188900
     18 CAO          3.5480    -0.1920    -0.0500 ca         1 3G5      -0.079900
     19 CAV          1.4240    -1.2880    -0.0130 ca         1 3G5      -0.240600
     20 H1          -3.4330    -2.2820     1.2490 ha         1 3G5       0.120500
     21 H2          -5.7790    -1.6090     1.2170 ha         1 3G5       0.151500
     22 H4          -4.8130     1.7420    -1.2440 ha         1 3G5       0.151500
     23 H5          -2.4600     1.0970    -1.2260 ha         1 3G5       0.120500
     24 H6           3.5060     1.9660    -0.0870 ha         1 3G5       0.159000
     25 H7           3.2990    -2.3270    -0.0160 ha         1 3G5       0.168000
     26 H8          -1.0420    -4.1430    -0.0270 ho         1 3G5       0.437000
     27 CAN         -6.9390     0.5210    -0.0380 c          1 3G5       0.920200
     28 OAB          1.0650    -3.6320    -0.0060 o          1 3G5      -0.577100
     29 BRE          5.4290    -0.2590    -0.0660 br         1 3G5      -0.097100
     30 OAD         -1.6130    -3.3600    -0.0130 oh         1 3G5      -0.467100
@<TRIPOS>BOND
     1     1     2 ar  
     2     1     3 ar  
     3     1    20 1   
     4     2    15 ar  
     5     2    21 1   
     6     3     7 ar  
     7     3    17 1   
     8     4    27 1   
     9     5    27 1   
    10     6     7 ar  
    11     6    15 ar  
    12     6    22 1   
    13     7    23 1   
    14     8    11 1   
    15     8    17 2   
    16     8    30 1   
    17     9    10 1   
    18     9    12 ar  
    19     9    19 ar  
    20    10    17 1   
    21    11    19 1   
    22    11    28 2   
    23    12    13 1   
    24    12    14 ar  
    25    14    18 ar  
    26    14    24 1   
    27    15    27 1   
    28    16    18 ar  
    29    16    19 ar  
    30    16    25 1   
    31    18    29 1   
    32    26    30 1   
@<TRIPOS>SUBSTRUCTURE
     1 3G5         1 TEMP              0 ****  ****    0 ROOT
