@<TRIPOS>MOLECULE
3G6
   56    59     1     0     0
SMALL
bcc


@<TRIPOS>ATOM
      1 CAY         -1.6430    -0.2770     0.2380 c5         1 3G6      -0.044000
      2 CAX          2.8210    -0.4490     0.3820 c6         1 3G6      -0.015800
      3 CAW         -0.7860     0.9590    -0.0840 c5         1 3G6      -0.068700
      4 CAV         -2.9640     0.1290    -0.4580 c5         1 3G6      -0.027700
      5 CAU          1.3410    -0.3120    -0.0810 c6         1 3G6      -0.045700
      6 CAT          0.6220     0.9200     0.4910 c6         1 3G6      -0.045700
      7 CAS         -4.2470    -0.6390    -0.1270 c3         1 3G6      -0.188700
      8 CAR          3.5310     0.8710     0.1590 c2         1 3G6      -0.011400
      9 CAQ         -5.4410     0.0200    -0.8480 c          1 3G6       0.924600
     10 CAP          5.5650    -0.1910    -0.7690 c          1 3G6       0.581300
     11 CAO         -0.9170    -1.4940    -0.3340 c6         1 3G6      -0.060400
     12 OAD          6.6510    -0.0620    -1.3090 o          1 3G6      -0.548100
     13 CAM          0.5270    -1.5850     0.1670 c6         1 3G6      -0.071400
     14 CAL         -1.6890     2.1390     0.2600 c5         1 3G6      -0.073400
     15 CAH          5.0160    -1.5300    -0.3640 c6         1 3G6      -0.181400
     16 CAG          4.7450     0.9650    -0.4120 ce         1 3G6      -0.290200
     17 CAA         -4.1880    -2.1180    -0.5030 c3         1 3G6      -0.056100
     18 CAC         -1.8740    -0.4470     1.7430 c3         1 3G6      -0.071100
     19 OAE         -6.3480     0.5090    -0.1410 o          1 3G6      -0.841800
     20 OAF         -5.4160     0.0040    -2.0970 o          1 3G6      -0.841800
     21 CAK         -3.0970     1.6370    -0.1200 c5         1 3G6      -0.075400
     22 CAJ          1.3970     2.1870     0.1600 c6         1 3G6      -0.068400
     23 CAI          2.8380     2.1030     0.6480 c6         1 3G6      -0.054200
     24 CAN          3.4980    -1.5480    -0.4490 c6         1 3G6      -0.064400
     25 CAB          2.9190    -0.7870     1.8810 c3         1 3G6      -0.079100
     26 H1          -0.6660     0.9640    -1.1790 hc         1 3G6       0.044700
     27 H2          -2.7970     0.0310    -1.5380 hc         1 3G6       0.056700
     28 H3           1.3820    -0.1610    -1.1710 hc         1 3G6       0.048700
     29 H4           0.5610     0.8330     1.5840 hc         1 3G6       0.048700
     30 H5          -4.4220    -0.5590     0.9510 hc         1 3G6       0.031700
     31 H6          -1.4270    -2.4240    -0.0740 hc         1 3G6       0.044200
     32 H7          -0.9260    -1.4300    -1.4280 hc         1 3G6       0.044200
     33 H8           1.0070    -2.4400    -0.3140 hc         1 3G6       0.030200
     34 H9           0.5200    -1.8110     1.2370 hc         1 3G6       0.030200
     35 H10         -1.6280     2.3810     1.3250 hc         1 3G6       0.024200
     36 H11         -1.4080     3.0460    -0.2800 hc         1 3G6       0.024200
     37 H12          5.4540    -2.3130    -0.9840 hc         1 3G6       0.063700
     38 H13          5.3470    -1.7230     0.6620 hc         1 3G6       0.063700
     39 H14          5.1890     1.9420    -0.5720 ha         1 3G6       0.140000
     40 H15         -5.1600    -2.5980    -0.3660 hc         1 3G6       0.011700
     41 H16         -3.8960    -2.2490    -1.5460 hc         1 3G6       0.011700
     42 H17         -3.4760    -2.6700     0.1110 hc         1 3G6       0.011700
     43 H18         -0.9460    -0.5250     2.3090 hc         1 3G6       0.026033
     44 H19         -2.4370     0.3860     2.1680 hc         1 3G6       0.026033
     45 H20         -2.4470    -1.3550     1.9440 hc         1 3G6       0.026033
     46 H22         -3.5070     2.1860    -0.9690 hc         1 3G6       0.058700
     47 H23         -3.8030     1.7800     0.7020 hc         1 3G6       0.058700
     48 H24          1.3860     2.3480    -0.9240 hc         1 3G6       0.046200
     49 H25          0.9160     3.0590     0.6090 hc         1 3G6       0.046200
     50 H26          2.8410     2.0830     1.7440 hc         1 3G6       0.048200
     51 H27          3.4000     2.9920     0.3560 hc         1 3G6       0.048200
     52 H28          3.1360    -2.5290    -0.1380 hc         1 3G6       0.050200
     53 H29          3.2030    -1.4280    -1.4970 hc         1 3G6       0.050200
     54 H30          3.9530    -0.7480     2.2280 hc         1 3G6       0.035367
     55 H31          2.3410    -0.1000     2.4980 hc         1 3G6       0.035367
     56 H32          2.5480    -1.7940     2.0750 hc         1 3G6       0.035367
@<TRIPOS>BOND
     1     1     3 1   
     2     1     4 1   
     3     1    11 1   
     4     1    18 1   
     5     2     5 1   
     6     2     8 1   
     7     2    24 1   
     8     2    25 1   
     9     3     6 1   
    10     3    14 1   
    11     3    26 1   
    12     4     7 1   
    13     4    21 1   
    14     4    27 1   
    15     5     6 1   
    16     5    13 1   
    17     5    28 1   
    18     6    22 1   
    19     6    29 1   
    20     7     9 1   
    21     7    17 1   
    22     7    30 1   
    23     8    16 2   
    24     8    23 1   
    25     9    19 1   
    26     9    20 1   
    27    10    12 2   
    28    10    15 1   
    29    10    16 1   
    30    11    13 1   
    31    11    31 1   
    32    11    32 1   
    33    13    33 1   
    34    13    34 1   
    35    14    21 1   
    36    14    35 1   
    37    14    36 1   
    38    15    24 1   
    39    15    37 1   
    40    15    38 1   
    41    16    39 1   
    42    17    40 1   
    43    17    41 1   
    44    17    42 1   
    45    18    43 1   
    46    18    44 1   
    47    18    45 1   
    48    21    46 1   
    49    21    47 1   
    50    22    23 1   
    51    22    48 1   
    52    22    49 1   
    53    23    50 1   
    54    23    51 1   
    55    24    52 1   
    56    24    53 1   
    57    25    54 1   
    58    25    55 1   
    59    25    56 1   
@<TRIPOS>SUBSTRUCTURE
     1 3G6         1 TEMP              0 ****  ****    0 ROOT
