@<TRIPOS>MOLECULE
3G6
   56    59     1     0     0
SMALL
No Charge or Current Charge


@<TRIPOS>ATOM
      1 CAY         -1.6890    -0.3280     0.3000 c5         1 3G6      -0.044000
      2 CAX          2.9610    -0.3690     0.3530 c6         1 3G6      -0.015800
      3 CAW         -0.7920     0.9130    -0.1270 c5         1 3G6      -0.068700
      4 CAV         -3.0220     0.1310    -0.4300 c5         1 3G6      -0.027700
      5 CAU          1.4930    -0.2570    -0.1700 c6         1 3G6      -0.045700
      6 CAT          0.7060     0.9410     0.4030 c6         1 3G6      -0.045700
      7 CAS         -4.3640    -0.6550    -0.1800 c3         1 3G6      -0.188700
      8 CAR          3.6850     0.9810     0.1640 c2         1 3G6      -0.011400
      9 CAQ         -5.5630     0.0790    -0.8360 c          1 3G6       0.714000
     10 CAP          5.7780    -0.1020    -0.6870 c          1 3G6       0.581300
     11 CAO         -1.1240    -1.6870    -0.2600 c6         1 3G6      -0.060400
     12 OAD          6.8500     0.0230    -1.2620 o          1 3G6      -0.548100
     13 CAM          0.3070    -2.0080     0.2140 c6         1 3G6      -0.071400
     14 CAL         -1.7120     2.1350     0.2580 c5         1 3G6      -0.073400
     15 CAH          5.2030    -1.4770    -0.3380 c6         1 3G6      -0.181400
     16 CAG          4.9590     1.0690    -0.2860 ce         1 3G6      -0.340200
     17 CAA         -4.3790    -2.1400    -0.6200 c3         1 3G6      -0.056100
     18 CAC         -1.8700    -0.4780     1.8490 c3         1 3G6      -0.071100
     19 OAE         -6.4540     0.4930    -0.1070 o          1 3G6      -0.736500
     20 OAF         -5.5850     0.2010    -2.0520 o          1 3G6      -0.736500
     21 CAK         -3.1560     1.6370    -0.0160 c5         1 3G6      -0.075400
     22 CAJ          1.4530     2.2470     0.0290 c6         1 3G6      -0.068400
     23 CAI          2.9040     2.2340     0.5690 c6         1 3G6      -0.054200
     24 CAN          3.6610    -1.4950    -0.4740 c6         1 3G6      -0.064400
     25 CAB          3.0040    -0.7230     1.8770 c3         1 3G6      -0.079100
     26 H1          -0.6860     0.9070    -1.2180 hc         1 3G6       0.044700
     27 H2          -2.8650     0.0830    -1.5150 hc         1 3G6       0.056700
     28 H3           1.5270    -0.1250    -1.2610 hc         1 3G6       0.048700
     29 H4           0.6690     0.8720     1.4970 hc         1 3G6       0.048700
     30 H5          -4.5560    -0.6550     0.9000 hc         1 3G6       0.031700
     31 H6          -1.7600    -2.5290     0.0260 hc         1 3G6       0.044200
     32 H7          -1.1290    -1.6570    -1.3580 hc         1 3G6       0.044200
     33 H8           0.7110    -2.8740    -0.3270 hc         1 3G6       0.030200
     34 H9           0.3200    -2.2570     1.2830 hc         1 3G6       0.030200
     35 H10         -1.5810     2.4150     1.3090 hc         1 3G6       0.024200
     36 H11         -1.4710     3.0240    -0.3360 hc         1 3G6       0.024200
     37 H12          5.6960    -2.2550    -0.9340 hc         1 3G6       0.063700
     38 H13          5.4480    -1.6610     0.7140 hc         1 3G6       0.063700
     39 H14          5.4400     2.0360    -0.4210 ha         1 3G6       0.190000
     40 H15         -5.4110    -2.5040    -0.7000 hc         1 3G6       0.011700
     41 H16         -3.8950    -2.2720    -1.5950 hc         1 3G6       0.011700
     42 H17         -3.8830    -2.7760     0.1200 hc         1 3G6       0.011700
     43 H18         -0.9120    -0.6090     2.3630 hc         1 3G6       0.026033
     44 H19         -2.3580     0.3880     2.3080 hc         1 3G6       0.026033
     45 H20         -2.4860    -1.3520     2.0890 hc         1 3G6       0.026033
     46 H22         -3.6380     2.2250    -0.8050 hc         1 3G6       0.058700
     47 H23         -3.7750     1.7590     0.8810 hc         1 3G6       0.058700
     48 H24          1.4670     2.3730    -1.0620 hc         1 3G6       0.046200
     49 H25          0.9260     3.1200     0.4380 hc         1 3G6       0.046200
     50 H26          2.8830     2.3030     1.6650 hc         1 3G6       0.048200
     51 H27          3.4250     3.1360     0.2220 hc         1 3G6       0.048200
     52 H28          3.2710    -2.4800    -0.1830 hc         1 3G6       0.050200
     53 H29          3.4090    -1.3750    -1.5360 hc         1 3G6       0.050200
     54 H30          4.0320    -0.7530     2.2550 hc         1 3G6       0.035367
     55 H31          2.4720     0.0100     2.4920 hc         1 3G6       0.035367
     56 H32          2.5560    -1.7030     2.0750 hc         1 3G6       0.035367
@<TRIPOS>BOND
     1     1     3 1   
     2     1     4 1   
     3     1    11 1   
     4     1    18 1   
     5     2     5 1   
     6     2     8 1   
     7     2    24 1   
     8     2    25 1   
     9     3     6 1   
    10     3    14 1   
    11     3    26 1   
    12     4     7 1   
    13     4    21 1   
    14     4    27 1   
    15     5     6 1   
    16     5    13 1   
    17     5    28 1   
    18     6    22 1   
    19     6    29 1   
    20     7     9 1   
    21     7    17 1   
    22     7    30 1   
    23     8    16 2   
    24     8    23 1   
    25     9    19 1   
    26     9    20 1   
    27    10    12 2   
    28    10    15 1   
    29    10    16 1   
    30    11    13 1   
    31    11    31 1   
    32    11    32 1   
    33    13    33 1   
    34    13    34 1   
    35    14    21 1   
    36    14    35 1   
    37    14    36 1   
    38    15    24 1   
    39    15    37 1   
    40    15    38 1   
    41    16    39 1   
    42    17    40 1   
    43    17    41 1   
    44    17    42 1   
    45    18    43 1   
    46    18    44 1   
    47    18    45 1   
    48    21    46 1   
    49    21    47 1   
    50    22    23 1   
    51    22    48 1   
    52    22    49 1   
    53    23    50 1   
    54    23    51 1   
    55    24    52 1   
    56    24    53 1   
    57    25    54 1   
    58    25    55 1   
    59    25    56 1   
@<TRIPOS>SUBSTRUCTURE
     1 3G6         1 TEMP              0 ****  ****    0 ROOT
