@<TRIPOS>MOLECULE
3G7
   63    66     1     0     0
SMALL
No Charge or Current Charge


@<TRIPOS>ATOM
      1 N1           2.7830    -2.0600     0.1020 n          1 3G7      -0.419800
      2 C2           9.0530     1.4530    -0.0520 ca         1 3G7      -0.220600
      3 C4           7.7400    -0.5510     0.4410 ca         1 3G7      -0.191000
      4 C5           6.5690     0.0710    -0.0190 ca         1 3G7       0.339000
      5 C6           6.6480     1.3900    -0.4980 ca         1 3G7      -0.191000
      6 C7           7.8730     2.0780    -0.5160 ca         1 3G7      -0.024000
      7 C10          3.3030    -1.5360    -1.1940 c6         1 3G7       0.090500
      8 C16         -3.4250    -1.6240    -0.6320 c5         1 3G7      -0.153700
      9 C17         -2.0440    -1.1450    -1.1720 c5         1 3G7       0.174800
     10 C18         -4.2080    -0.4110    -0.0610 c          1 3G7       0.615100
     11 C20         -6.5280     1.6840     0.2900 ca         1 3G7      -0.090000
     12 C21         -7.6400     2.5440     0.3460 ca         1 3G7      -0.117000
     13 C23         -8.7280     1.2590    -1.4070 ca         1 3G7       0.046000
     14 C22         -8.7410     2.3370    -0.4990 ca         1 3G7       0.130100
     15 O3          -9.8120     3.1830    -0.4310 oh         1 3G7      -0.526100
     16 C24         -7.6180     0.3990    -1.4630 ca         1 3G7      -0.125000
     17 C19         -6.5090     0.6000    -0.6180 ca         1 3G7      -0.043000
     18 O2          -3.8370     0.3410     0.8340 o          1 3G7      -0.562100
     19 C15         -3.0680    -2.6450     0.5030 c5         1 3G7      -0.074400
     20 C14         -1.5950    -2.9830     0.1850 c5         1 3G7       0.159800
     21 N2          -1.0930    -1.6340    -0.1480 n3         1 3G7      -0.687600
     22 C12          1.4440    -1.9030     0.5400 c          1 3G7       0.607100
     23 O1           1.1590    -2.0860     1.7210 o          1 3G7      -0.572100
     24 C9           3.8870    -2.4270     1.0320 c6         1 3G7       0.090500
     25 C8           4.8440    -1.2290     1.2840 c6         1 3G7       0.181300
     26 C11          4.2570    -0.3260    -0.9800 c6         1 3G7       0.181300
     27 N            5.3430    -0.6340     0.0040 nh         1 3G7      -0.796400
     28 C3           8.9700     0.1270     0.4270 ca         1 3G7      -0.024000
     29 O           11.4020     1.6070     0.3500 o          1 3G7      -0.536100
     30 C           10.4840     3.6030    -0.5770 c3         1 3G7      -0.195100
     31 H2           7.7020    -1.5750     0.8020 ha         1 3G7       0.115000
     32 H3           5.7560     1.8990    -0.8500 ha         1 3G7       0.115000
     33 H4           7.8850     3.0990    -0.8920 ha         1 3G7       0.121000
     34 H5           3.8600    -2.3380    -1.6980 h1         1 3G7       0.063950
     35 H6           2.4960    -1.2360    -1.8730 h1         1 3G7       0.063950
     36 H7          -3.9930    -2.1120    -1.4340 hc         1 3G7       0.060700
     37 H8          -1.8370    -1.6040    -2.1490 h1         1 3G7       0.047200
     38 H9          -1.9900    -0.0540    -1.3020 h1         1 3G7       0.047200
     39 H10         -5.6960     1.8780     0.9590 ha         1 3G7       0.156000
     40 H11         -7.6470     3.3750     1.0470 ha         1 3G7       0.136000
     41 H12        -10.4760     2.8820    -1.0900 ho         1 3G7       0.476000
     42 H13         -7.6220    -0.4290    -2.1690 ha         1 3G7       0.124000
     43 H14         -3.1490    -2.2010     1.5020 hc         1 3G7       0.059200
     44 H15         -3.7100    -3.5330     0.4910 hc         1 3G7       0.059200
     45 H16         -1.0830    -3.4320     1.0470 h1         1 3G7       0.046700
     46 H17         -1.5100    -3.6730    -0.6670 h1         1 3G7       0.046700
     47 H21          3.4950    -2.7890     1.9920 h1         1 3G7       0.063950
     48 H22          4.4620    -3.2530     0.5900 h1         1 3G7       0.063950
     49 H23          4.3060    -0.4630     1.8620 h1         1 3G7       0.050700
     50 H24          5.6790    -1.5770     1.9090 h1         1 3G7       0.050700
     51 H25          4.6910    -0.0520    -1.9540 h1         1 3G7       0.050700
     52 H26          3.6670     0.5330    -0.6280 h1         1 3G7       0.050700
     53 H27          9.8580    -0.3870     0.7890 ha         1 3G7       0.121000
     54 H28          9.7810     4.2320    -0.0200 hc         1 3G7       0.058367
     55 H29         11.5030     4.0040    -0.5290 hc         1 3G7       0.058367
     56 H30         10.0870     3.6420    -1.5980 hc         1 3G7       0.058367
     57 C1          10.3910     2.1670    -0.0570 c          1 3G7       0.589700
     58 C13          0.3540    -1.5430    -0.5260 c3         1 3G7       0.097800
     59 N3          -5.4220    -0.3120    -0.7330 ns         1 3G7      -0.150000
     60 Cl         -10.0970     0.9730    -2.4820 cl         1 3G7      -0.208000
     61 H1          -5.5610    -1.0230    -1.4390 hn         1 3G7       0.148000
     62 H19          0.5360    -2.1930    -1.3930 h1         1 3G7       0.046200
     63 H20          0.5760    -0.5180    -0.8480 h1         1 3G7       0.046200
@<TRIPOS>BOND
     1     1     7 1   
     2     1    22 1   
     3     1    24 1   
     4     2     6 ar  
     5     2    28 ar  
     6     2    57 1   
     7     3     4 ar  
     8     3    28 ar  
     9     3    31 1   
    10     4     5 ar  
    11     4    27 1   
    12     5     6 ar  
    13     5    32 1   
    14     6    33 1   
    15     7    26 1   
    16     7    34 1   
    17     7    35 1   
    18     8     9 1   
    19     8    10 1   
    20     8    19 1   
    21     8    36 1   
    22     9    21 1   
    23     9    37 1   
    24     9    38 1   
    25    10    18 2   
    26    10    59 1   
    27    11    12 ar  
    28    11    17 ar  
    29    11    39 1   
    30    12    14 ar  
    31    12    40 1   
    32    13    14 ar  
    33    13    16 ar  
    34    13    60 1   
    35    14    15 1   
    36    15    41 1   
    37    16    17 ar  
    38    16    42 1   
    39    17    59 1   
    40    19    20 1   
    41    19    43 1   
    42    19    44 1   
    43    20    21 1   
    44    20    45 1   
    45    20    46 1   
    46    21    58 1   
    47    22    23 2   
    48    22    58 1   
    49    24    25 1   
    50    24    47 1   
    51    24    48 1   
    52    25    27 1   
    53    25    49 1   
    54    25    50 1   
    55    26    27 1   
    56    26    51 1   
    57    26    52 1   
    58    28    53 1   
    59    29    57 2   
    60    30    54 1   
    61    30    55 1   
    62    30    56 1   
    63    30    57 1   
    64    58    62 1   
    65    58    63 1   
    66    59    61 1   
@<TRIPOS>SUBSTRUCTURE
     1 3G7         1 TEMP              0 ****  ****    0 ROOT
