@<TRIPOS>MOLECULE
3G7
   63    66     1     0     0
SMALL
abcg2


@<TRIPOS>ATOM
      1 N1           2.6410    -2.0770     0.2110 n          1 3G7      -0.419800
      2 C2           8.6610     1.5770     0.2540 ca         1 3G7      -0.220600
      3 C4           7.2200    -0.0760     1.2810 ca         1 3G7      -0.191000
      4 C5           6.2960     0.0090     0.2200 ca         1 3G7       0.339000
      5 C6           6.5940     0.9070    -0.8170 ca         1 3G7      -0.191000
      6 C7           7.7490     1.6620    -0.7970 ca         1 3G7      -0.024000
      7 C10          3.3900    -1.9450    -1.0180 c6         1 3G7       0.090500
      8 C16         -3.0900    -1.2690    -1.5070 c5         1 3G7      -0.153700
      9 C17         -1.6160    -0.9850    -1.7990 c5         1 3G7       0.174800
     10 C18         -3.8400    -0.0720    -0.9580 c          1 3G7       0.615100
     11 C20         -5.9760     1.8360     0.1130 ca         1 3G7      -0.090000
     12 C21         -7.0440     2.5980     0.5500 ca         1 3G7      -0.117000
     13 C23         -8.5680     0.9570    -0.2390 ca         1 3G7       0.046000
     14 C22         -8.3590     2.1830     0.3870 ca         1 3G7       0.130100
     15 O3          -9.3470     2.9740     0.8350 oh         1 3G7      -0.526100
     16 C24         -7.5130     0.1800    -0.6830 ca         1 3G7      -0.125000
     17 C19         -6.2000     0.6090    -0.5130 ca         1 3G7      -0.043000
     18 O2          -3.2890     0.9110    -0.5010 o          1 3G7      -0.562100
     19 C15         -3.0540    -2.4090    -0.4520 c5         1 3G7      -0.074400
     20 C14         -1.5870    -2.8170    -0.4110 c5         1 3G7       0.159800
     21 N2          -0.9000    -1.5670    -0.6780 n3         1 3G7      -0.687600
     22 C12          1.3070    -1.9100     0.3560 c          1 3G7       0.607100
     23 O1           0.7640    -1.9380     1.4480 o          1 3G7      -0.572100
     24 C9           3.5170    -2.1960     1.3560 c6         1 3G7       0.090500
     25 C8           4.4400    -0.9940     1.4450 c6         1 3G7       0.181300
     26 C11          4.3070    -0.7340    -0.9670 c6         1 3G7       0.181300
     27 N            5.1660    -0.7820     0.2000 nh         1 3G7      -0.796400
     28 C3           8.3630     0.6860     1.2930 ca         1 3G7      -0.024000
     29 O           10.6720     2.2980     1.2350 o          1 3G7      -0.536100
     30 C           10.1820     3.3080    -0.8520 c3         1 3G7      -0.195100
     31 H2           7.0620    -0.7690     2.0950 ha         1 3G7       0.115000
     32 H3           5.9140     1.0480    -1.6440 ha         1 3G7       0.115000
     33 H4           7.9130     2.3420    -1.6220 ha         1 3G7       0.121000
     34 H5           3.9900    -2.8480    -1.1640 h1         1 3G7       0.063950
     35 H6           2.7430    -1.8590    -1.8850 h1         1 3G7       0.063950
     36 H7          -3.5840    -1.6130    -2.4190 hc         1 3G7       0.060700
     37 H8          -1.3450    -1.4660    -2.7520 h1         1 3G7       0.047200
     38 H9          -1.3910     0.0770    -1.8990 h1         1 3G7       0.047200
     39 H10         -4.9770     2.2070     0.2650 ha         1 3G7       0.156000
     40 H11         -6.8540     3.5470     1.0340 ha         1 3G7       0.136000
     41 H12        -10.2090     2.5880     0.6490 ho         1 3G7       0.476000
     42 H13         -7.7280    -0.7650    -1.1650 ha         1 3G7       0.124000
     43 H14         -3.3650    -2.0470     0.5290 hc         1 3G7       0.059200
     44 H15         -3.7070    -3.2390    -0.7160 hc         1 3G7       0.059200
     45 H16         -1.2980    -3.2420     0.5480 h1         1 3G7       0.046700
     46 H17         -1.3800    -3.5700    -1.1910 h1         1 3G7       0.046700
     47 H21          2.9340    -2.2740     2.2690 h1         1 3G7       0.063950
     48 H22          4.1110    -3.1090     1.2570 h1         1 3G7       0.063950
     49 H23          3.8540    -0.1000     1.7010 h1         1 3G7       0.050700
     50 H24          5.1330    -1.1650     2.2650 h1         1 3G7       0.050700
     51 H25          4.9140    -0.7520    -1.8710 h1         1 3G7       0.050700
     52 H26          3.7040     0.1860    -0.9910 h1         1 3G7       0.050700
     53 H27          9.0490     0.5820     2.1230 ha         1 3G7       0.121000
     54 H28          9.3950     4.0560    -0.9560 hc         1 3G7       0.058367
     55 H29         11.1290     3.8200    -0.7000 hc         1 3G7       0.058367
     56 H30         10.2290     2.7610    -1.7950 hc         1 3G7       0.058367
     57 C1           9.8930     2.3770     0.3000 c          1 3G7       0.589700
     58 C13          0.5070    -1.6800    -0.9220 c3         1 3G7       0.097800
     59 N3          -5.1900    -0.2350    -0.9910 ns         1 3G7      -0.150000
     60 CL         -10.1950     0.4000    -0.4620 cl         1 3G7      -0.208000
     61 H1          -5.5170    -1.0940    -1.4040 hn         1 3G7       0.148000
     62 H19          0.7350    -2.4730    -1.6570 h1         1 3G7       0.046200
     63 H20          0.8540    -0.7440    -1.3710 h1         1 3G7       0.046200
@<TRIPOS>BOND
     1     1     7 1   
     2     1    22 1   
     3     1    24 1   
     4     2     6 ar  
     5     2    28 ar  
     6     2    57 1   
     7     3     4 ar  
     8     3    28 ar  
     9     3    31 1   
    10     4     5 ar  
    11     4    27 1   
    12     5     6 ar  
    13     5    32 1   
    14     6    33 1   
    15     7    26 1   
    16     7    34 1   
    17     7    35 1   
    18     8     9 1   
    19     8    10 1   
    20     8    19 1   
    21     8    36 1   
    22     9    21 1   
    23     9    37 1   
    24     9    38 1   
    25    10    18 2   
    26    10    59 1   
    27    11    12 ar  
    28    11    17 ar  
    29    11    39 1   
    30    12    14 ar  
    31    12    40 1   
    32    13    14 ar  
    33    13    16 ar  
    34    13    60 1   
    35    14    15 1   
    36    15    41 1   
    37    16    17 ar  
    38    16    42 1   
    39    17    59 1   
    40    19    20 1   
    41    19    43 1   
    42    19    44 1   
    43    20    21 1   
    44    20    45 1   
    45    20    46 1   
    46    21    58 1   
    47    22    23 2   
    48    22    58 1   
    49    24    25 1   
    50    24    47 1   
    51    24    48 1   
    52    25    27 1   
    53    25    49 1   
    54    25    50 1   
    55    26    27 1   
    56    26    51 1   
    57    26    52 1   
    58    28    53 1   
    59    29    57 2   
    60    30    54 1   
    61    30    55 1   
    62    30    56 1   
    63    30    57 1   
    64    58    62 1   
    65    58    63 1   
    66    59    61 1   
@<TRIPOS>SUBSTRUCTURE
     1 3G7         1 TEMP              0 ****  ****    0 ROOT
