@<TRIPOS>MOLECULE
3G8
   40    42     1     0     0
SMALL
No Charge or Current Charge


@<TRIPOS>ATOM
      1 CAA          6.5730    -1.3010     1.1070 c3         1 3G8      -0.116100
      2 CAL          5.8380    -0.7500    -0.1290 c3         1 3G8       0.220800
      3 NAW          4.7010     0.1440     0.2010 nh         1 3G8      -0.813400
      4 CAM          5.0270     1.5310     0.6120 c3         1 3G8       0.220800
      5 CAB          5.3960     2.4570    -0.5620 c3         1 3G8      -0.116100
      6 CAQ          3.3580    -0.3110     0.1280 ca         1 3G8       0.416000
      7 CAJ          2.3220     0.5700    -0.2230 ca         1 3G8      -0.255000
      8 CAH          3.0340    -1.6530     0.4040 ca         1 3G8      -0.229000
      9 CAI          1.7070    -2.1050     0.3320 ca         1 3G8       0.011000
     10 CAU          0.6800    -1.2130    -0.0210 ca         1 3G8      -0.248800
     11 CAK         -0.7000    -1.6670    -0.0850 cc         1 3G8       0.024800
     12 CAV          1.0010     0.1190    -0.2940 ca         1 3G8       0.244100
     13 OAN          0.0220     0.9940    -0.6590 os         1 3G8      -0.342200
     14 CAT         -1.3020     0.6670    -0.7410 c          1 3G8       0.690300
     15 OAD         -2.0870     1.4590    -1.2370 o          1 3G8      -0.481000
     16 CAS         -1.6730    -0.7220    -0.3730 cd         1 3G8      -0.356400
     17 CAP         -3.0860    -1.1740    -0.4170 c          1 3G8       0.644900
     18 OAC         -3.3310    -2.3310    -0.7320 o          1 3G8      -0.525100
     19 CAR         -4.2060    -0.2790    -0.0200 cc         1 3G8      -0.304600
     20 SAO         -4.0520     1.1770     0.9660 ss         1 3G8       0.273000
     21 CAF         -5.8020     1.3450     1.0550 cc         1 3G8      -0.240000
     22 CAE         -6.4300     0.3180     0.3960 cd         1 3G8      -0.148000
     23 CAG         -5.5320    -0.6110    -0.1940 cd         1 3G8      -0.064000
     24 H1           7.0260    -0.4890     1.6870 hc         1 3G8       0.045367
     25 H2           5.8860    -1.8510     1.7590 hc         1 3G8       0.045367
     26 H3           7.3720    -1.9850     0.7960 hc         1 3G8       0.045367
     27 H4           6.5640    -0.2130    -0.7540 h1         1 3G8       0.052950
     28 H5           5.4870    -1.5950    -0.7380 h1         1 3G8       0.052950
     29 H6           4.1790     1.9710     1.1560 h1         1 3G8       0.052950
     30 H7           5.8640     1.5210     1.3230 h1         1 3G8       0.052950
     31 H8           5.5850     3.4730    -0.1960 hc         1 3G8       0.045367
     32 H9           6.3020     2.1040    -1.0680 hc         1 3G8       0.045367
     33 H10          4.5850     2.5010    -1.2970 hc         1 3G8       0.045367
     34 H11          2.5320     1.6060    -0.4580 ha         1 3G8       0.140000
     35 H12          3.8080    -2.3570     0.6890 ha         1 3G8       0.121000
     36 H13          1.4800    -3.1460     0.5550 ha         1 3G8       0.118000
     37 H14         -0.9660    -2.7010     0.1370 ha         1 3G8       0.200000
     38 H15         -6.2320     2.1790     1.5940 h4         1 3G8       0.150000
     39 H16         -7.5100     0.2160     0.3440 ha         1 3G8       0.136000
     40 H17         -5.8660    -1.4980    -0.7260 ha         1 3G8       0.146000
@<TRIPOS>BOND
     1     1     2 1   
     2     1    24 1   
     3     1    25 1   
     4     1    26 1   
     5     2     3 1   
     6     2    27 1   
     7     2    28 1   
     8     3     4 1   
     9     3     6 1   
    10     4     5 1   
    11     4    29 1   
    12     4    30 1   
    13     5    31 1   
    14     5    32 1   
    15     5    33 1   
    16     6     7 ar  
    17     6     8 ar  
    18     7    12 ar  
    19     7    34 1   
    20     8     9 ar  
    21     8    35 1   
    22     9    10 ar  
    23     9    36 1   
    24    10    11 1   
    25    10    12 ar  
    26    11    16 2   
    27    11    37 1   
    28    12    13 1   
    29    13    14 1   
    30    14    15 2   
    31    14    16 1   
    32    16    17 1   
    33    17    18 2   
    34    17    19 1   
    35    19    20 1   
    36    19    23 2   
    37    20    21 1   
    38    21    22 2   
    39    21    38 1   
    40    22    23 1   
    41    22    39 1   
    42    23    40 1   
@<TRIPOS>SUBSTRUCTURE
     1 3G8         1 TEMP              0 ****  ****    0 ROOT
