@<TRIPOS>MOLECULE
3G8
   40    42     1     0     0
SMALL
abcg2


@<TRIPOS>ATOM
      1 CAA          6.0960    -1.1840     1.7400 c3         1 3G8      -0.116100
      2 CAL          5.7800    -0.7480     0.3170 c3         1 3G8       0.220800
      3 NAW          4.6560     0.1710     0.2350 nh         1 3G8      -0.813400
      4 CAM          4.9910     1.5840     0.2900 c3         1 3G8       0.220800
      5 CAB          5.2670     2.1880    -1.0790 c3         1 3G8      -0.116100
      6 CAQ          3.3860    -0.2590     0.0840 ca         1 3G8       0.416000
      7 CAJ          2.3280     0.6470    -0.1460 ca         1 3G8      -0.255000
      8 CAH          3.0640    -1.6460     0.1540 ca         1 3G8      -0.229000
      9 CAI          1.7780    -2.0810     0.0010 ca         1 3G8       0.011000
     10 CAU          0.7210    -1.1830    -0.2290 ca         1 3G8      -0.248800
     11 CAK         -0.6290    -1.5520    -0.3900 cc         1 3G8       0.024800
     12 CAV          1.0440     0.1780    -0.2950 ca         1 3G8       0.244100
     13 OAN          0.0730     1.0890    -0.5320 os         1 3G8      -0.342200
     14 CAT         -1.2430     0.7790    -0.7000 c          1 3G8       0.690300
     15 OAD         -1.9840     1.6900    -0.9750 o          1 3G8      -0.481000
     16 CAS         -1.6040    -0.6160    -0.5680 cd         1 3G8      -0.356400
     17 CAP         -3.0110    -1.0500    -0.7450 c          1 3G8       0.644900
     18 OAC         -3.2740    -2.0150    -1.4390 o          1 3G8      -0.525100
     19 CAR         -4.0740    -0.3560    -0.0130 cc         1 3G8      -0.304600
     20 SAO         -3.7720     0.6160     1.3780 ss         1 3G8       0.273000
     21 CAF         -5.4350     0.8810     1.6240 cc         1 3G8      -0.240000
     22 CAE         -6.2000     0.2600     0.6760 cd         1 3G8      -0.148000
     23 CAG         -5.4210    -0.4600    -0.2540 cd         1 3G8      -0.064000
     24 H1           6.3590    -0.3290     2.3650 hc         1 3G8       0.045367
     25 H2           5.2500    -1.6910     2.2030 hc         1 3G8       0.045367
     26 H3           6.9440    -1.8690     1.7430 hc         1 3G8       0.045367
     27 H4           6.6450    -0.2420    -0.1150 h1         1 3G8       0.052950
     28 H5           5.6010    -1.6120    -0.3230 h1         1 3G8       0.052950
     29 H6           4.2000     2.1320     0.8040 h1         1 3G8       0.052950
     30 H7           5.8740     1.6840     0.9230 h1         1 3G8       0.052950
     31 H8           5.5350     3.2390    -0.9790 hc         1 3G8       0.045367
     32 H9           6.0960     1.6780    -1.5720 hc         1 3G8       0.045367
     33 H10          4.3960     2.1230    -1.7310 hc         1 3G8       0.045367
     34 H11          2.4980     1.7110    -0.2340 ha         1 3G8       0.140000
     35 H12          3.8310    -2.3810     0.3460 ha         1 3G8       0.121000
     36 H13          1.5630    -3.1400     0.0660 ha         1 3G8       0.118000
     37 H14         -0.8920    -2.6030    -0.3440 ha         1 3G8       0.200000
     38 H15         -5.7720     1.4800     2.4560 h4         1 3G8       0.150000
     39 H16         -7.2790     0.3130     0.6530 ha         1 3G8       0.136000
     40 H17         -5.8310    -1.0250    -1.0790 ha         1 3G8       0.146000
@<TRIPOS>BOND
     1     1     2 1   
     2     1    24 1   
     3     1    25 1   
     4     1    26 1   
     5     2     3 1   
     6     2    27 1   
     7     2    28 1   
     8     3     4 1   
     9     3     6 1   
    10     4     5 1   
    11     4    29 1   
    12     4    30 1   
    13     5    31 1   
    14     5    32 1   
    15     5    33 1   
    16     6     7 ar  
    17     6     8 ar  
    18     7    12 ar  
    19     7    34 1   
    20     8     9 ar  
    21     8    35 1   
    22     9    10 ar  
    23     9    36 1   
    24    10    11 1   
    25    10    12 ar  
    26    11    16 2   
    27    11    37 1   
    28    12    13 1   
    29    13    14 1   
    30    14    15 2   
    31    14    16 1   
    32    16    17 1   
    33    17    18 2   
    34    17    19 1   
    35    19    20 1   
    36    19    23 2   
    37    20    21 1   
    38    21    22 2   
    39    21    38 1   
    40    22    23 1   
    41    22    39 1   
    42    23    40 1   
@<TRIPOS>SUBSTRUCTURE
     1 3G8         1 TEMP              0 ****  ****    0 ROOT
