@<TRIPOS>MOLECULE
3G9
   43    45     1     0     0
SMALL
No Charge or Current Charge


@<TRIPOS>ATOM
      1 CAA          7.7740    -1.7670    -0.5600 c3         1 3G9      -0.195100
      2 CAQ          7.0570    -0.9200     0.4930 c          1 3G9       0.590700
      3 OAB          7.6610    -0.5740     1.5020 o          1 3G9      -0.536100
      4 CAT          5.6100    -0.5190     0.2790 ca         1 3G9      -0.226600
      5 CAI          4.9490     0.2620     1.2530 ca         1 3G9      -0.021500
      6 CAK          3.6090     0.6450     1.0750 ca         1 3G9      -0.196500
      7 CAH          4.8930    -0.9040    -0.8770 ca         1 3G9      -0.021500
      8 CAJ          3.5530    -0.5160    -1.0440 ca         1 3G9      -0.196500
      9 CAV          2.8990     0.2590    -0.0740 ca         1 3G9       0.349000
     10 NAX          1.5500     0.6350    -0.2700 nh         1 3G9      -0.804400
     11 CAP          0.9990     1.8830     0.3400 c6         1 3G9       0.183800
     12 CAN         -0.2250     2.4140    -0.4540 c6         1 3G9       0.086000
     13 CAO          0.5120    -0.4150    -0.4990 c6         1 3G9       0.183800
     14 CAM         -0.7240     0.1350    -1.2670 c6         1 3G9       0.086000
     15 NAW         -1.2760     1.3760    -0.6450 n          1 3G9      -0.403800
     16 CAR         -2.4430     1.3600     0.1530 c          1 3G9       0.616700
     17 OAC         -2.5470     2.1010     1.1230 o          1 3G9      -0.583100
     18 CAU         -3.6070     0.4890    -0.2730 ca         1 3G9      -0.138600
     19 CAL         -4.5110     0.0150     0.7050 ca         1 3G9      -0.062000
     20 CAS         -5.6120    -0.7760     0.3380 ca         1 3G9       0.111000
     21 Cl1         -6.7150    -1.3710     1.5720 cl         1 3G9      -0.194000
     22 CAF         -5.8370    -1.0910    -1.0110 ca         1 3G9      -0.087000
     23 CAE         -4.9620    -0.6050    -1.9970 ca         1 3G9      -0.109000
     24 CAG         -3.8580     0.1860    -1.6320 ca         1 3G9      -0.085000
     25 H1           7.2010    -2.6840    -0.7340 hc         1 3G9       0.058700
     26 H2           7.7170    -1.2580    -1.5290 hc         1 3G9       0.058700
     27 H3           8.8120    -1.9900    -0.2860 hc         1 3G9       0.058700
     28 H4           5.4690     0.5750     2.1570 ha         1 3G9       0.120500
     29 H5           3.1260     1.2360     1.8460 ha         1 3G9       0.115000
     30 H6           5.3580    -1.5020    -1.6570 ha         1 3G9       0.120500
     31 H7           3.0240    -0.8120    -1.9450 ha         1 3G9       0.115000
     32 H8           0.6930     1.6910     1.3790 h1         1 3G9       0.052950
     33 H9           1.7660     2.6720     0.3600 h1         1 3G9       0.052950
     34 H10         -0.6360     3.2970     0.0550 h1         1 3G9       0.068450
     35 H11          0.1180     2.7510    -1.4430 h1         1 3G9       0.068450
     36 H12          0.9250    -1.2610    -1.0670 h1         1 3G9       0.052950
     37 H13          0.1750    -0.8140     0.4700 h1         1 3G9       0.052950
     38 H14         -0.4300     0.3580    -2.3020 h1         1 3G9       0.068450
     39 H15         -1.4760    -0.6620    -1.3060 h1         1 3G9       0.068450
     40 H16         -4.3540     0.2500     1.7550 ha         1 3G9       0.143000
     41 H17         -6.6920    -1.7020    -1.2920 ha         1 3G9       0.132000
     42 H18         -5.1440    -0.8350    -3.0450 ha         1 3G9       0.122000
     43 H19         -3.2110     0.5770    -2.4150 ha         1 3G9       0.124000
@<TRIPOS>BOND
     1     1     2 1   
     2     1    25 1   
     3     1    26 1   
     4     1    27 1   
     5     2     3 2   
     6     2     4 1   
     7     4     5 ar  
     8     4     7 ar  
     9     5     6 ar  
    10     5    28 1   
    11     6     9 ar  
    12     6    29 1   
    13     7     8 ar  
    14     7    30 1   
    15     8     9 ar  
    16     8    31 1   
    17     9    10 1   
    18    10    11 1   
    19    10    13 1   
    20    11    12 1   
    21    11    32 1   
    22    11    33 1   
    23    12    15 1   
    24    12    34 1   
    25    12    35 1   
    26    13    14 1   
    27    13    36 1   
    28    13    37 1   
    29    14    15 1   
    30    14    38 1   
    31    14    39 1   
    32    15    16 1   
    33    16    17 2   
    34    16    18 1   
    35    18    19 ar  
    36    18    24 ar  
    37    19    20 ar  
    38    19    40 1   
    39    20    21 1   
    40    20    22 ar  
    41    22    23 ar  
    42    22    41 1   
    43    23    24 ar  
    44    23    42 1   
    45    24    43 1   
@<TRIPOS>SUBSTRUCTURE
     1 3G9         1 TEMP              0 ****  ****    0 ROOT
