@<TRIPOS>MOLECULE
3G9
   43    45     1     0     0
SMALL
bcc


@<TRIPOS>ATOM
      1 CAA          7.4300    -2.0550    -0.3530 c3         1 3G9      -0.195100
      2 CAQ          6.9080    -0.8680     0.4140 c          1 3G9       0.590700
      3 OAB          7.6290    -0.2510     1.1770 o          1 3G9      -0.536100
      4 CAT          5.4970    -0.4800     0.2230 ca         1 3G9      -0.226600
      5 CAI          4.9540     0.5710     0.9640 ca         1 3G9      -0.039500
      6 CAK          3.6390     0.9590     0.8170 ca         1 3G9      -0.214500
      7 CAH          4.6510    -1.1270    -0.6830 ca         1 3G9      -0.039500
      8 CAJ          3.3380    -0.7440    -0.8470 ca         1 3G9      -0.214500
      9 CAV          2.7870     0.3190    -0.1040 ca         1 3G9       0.210600
     10 NAX          1.4860     0.7250    -0.2960 nh         1 3G9      -0.666000
     11 CAP          0.9600     1.8490     0.4560 c6         1 3G9       0.183800
     12 CAN         -0.2280     2.4670    -0.2630 c6         1 3G9       0.086000
     13 CAO          0.4660    -0.2550    -0.6360 c6         1 3G9       0.183800
     14 CAM         -0.7110     0.3840    -1.3530 c6         1 3G9       0.086000
     15 NAW         -1.2440     1.4780    -0.5630 n          1 3G9      -0.470800
     16 CAR         -2.4130     1.4640     0.1100 c          1 3G9       0.683700
     17 OAC         -2.6750     2.2380     1.0190 o          1 3G9      -0.583100
     18 CAU         -3.4520     0.4770    -0.3290 ca         1 3G9      -0.138600
     19 CAL         -4.0530    -0.3220     0.6360 ca         1 3G9      -0.080000
     20 CAS         -5.0730    -1.1800     0.2610 ca         1 3G9       0.019400
     21 CL1         -5.8010    -2.2000     1.4570 cl         1 3G9      -0.102400
     22 CAF         -5.5290    -1.2340    -1.0480 ca         1 3G9      -0.105000
     23 CAE         -4.9370    -0.4140    -1.9970 ca         1 3G9      -0.127000
     24 CAG         -3.8980     0.4340    -1.6470 ca         1 3G9      -0.103000
     25 H1           6.8750    -2.9570    -0.0900 hc         1 3G9       0.058700
     26 H2           7.3140    -1.9130    -1.4290 hc         1 3G9       0.058700
     27 H3           8.4830    -2.2140    -0.1320 hc         1 3G9       0.058700
     28 H4           5.5690     1.0880     1.6880 ha         1 3G9       0.138500
     29 H5           3.2760     1.7590     1.4440 ha         1 3G9       0.133000
     30 H6           5.0190    -1.9450    -1.2890 ha         1 3G9       0.138500
     31 H7           2.7480    -1.2660    -1.5860 ha         1 3G9       0.133000
     32 H8           0.6720     1.5520     1.4730 h1         1 3G9       0.052950
     33 H9           1.7190     2.6260     0.5410 h1         1 3G9       0.052950
     34 H10         -0.6470     3.2630     0.3460 h1         1 3G9       0.068450
     35 H11          0.1090     2.9050    -1.2070 h1         1 3G9       0.068450
     36 H12          0.8690    -1.0240    -1.2880 h1         1 3G9       0.052950
     37 H13          0.1040    -0.7560     0.2730 h1         1 3G9       0.052950
     38 H14         -0.3930     0.7680    -2.3260 h1         1 3G9       0.068450
     39 H15         -1.4640    -0.3800    -1.5250 h1         1 3G9       0.068450
     40 H16         -3.7210    -0.2840     1.6650 ha         1 3G9       0.161000
     41 H17         -6.3350    -1.9010    -1.3230 ha         1 3G9       0.150000
     42 H18         -5.2920    -0.4400    -3.0190 ha         1 3G9       0.140000
     43 H19         -3.4460     1.0700    -2.3970 ha         1 3G9       0.142000
@<TRIPOS>BOND
     1     1     2 1   
     2     1    25 1   
     3     1    26 1   
     4     1    27 1   
     5     2     3 2   
     6     2     4 1   
     7     4     5 ar  
     8     4     7 ar  
     9     5     6 ar  
    10     5    28 1   
    11     6     9 ar  
    12     6    29 1   
    13     7     8 ar  
    14     7    30 1   
    15     8     9 ar  
    16     8    31 1   
    17     9    10 1   
    18    10    11 1   
    19    10    13 1   
    20    11    12 1   
    21    11    32 1   
    22    11    33 1   
    23    12    15 1   
    24    12    34 1   
    25    12    35 1   
    26    13    14 1   
    27    13    36 1   
    28    13    37 1   
    29    14    15 1   
    30    14    38 1   
    31    14    39 1   
    32    15    16 1   
    33    16    17 2   
    34    16    18 1   
    35    18    19 ar  
    36    18    24 ar  
    37    19    20 ar  
    38    19    40 1   
    39    20    21 1   
    40    20    22 ar  
    41    22    23 ar  
    42    22    41 1   
    43    23    24 ar  
    44    23    42 1   
    45    24    43 1   
@<TRIPOS>SUBSTRUCTURE
     1 3G9         1 TEMP              0 ****  ****    0 ROOT
