@<TRIPOS>MOLECULE
3GA
   32    32     1     0     0
SMALL
bcc


@<TRIPOS>ATOM
      1 C2          12.4180   -14.3720    22.3100 c6         1 3GA      -0.093400
      2 C3          12.6110   -13.7680    23.6980 c6         1 3GA       0.235800
      3 N           16.0220   -12.0330    20.0760 n8         1 3GA      -0.877800
      4 CA          14.7420   -11.6060    19.5590 c3         1 3GA       0.050500
      5 C           14.9010   -10.4930    18.5640 c          1 3GA       0.567900
      6 O           15.9540   -10.0640    18.1650 o          1 3GA      -0.497100
      7 CB          13.8150   -11.1100    20.6740 c3         1 3GA      -0.064400
      8 NE          12.0810   -12.4220    23.7530 nh         1 3GA      -0.789600
      9 C1          12.6640   -13.3250    21.2100 c6         1 3GA      -0.071400
     10 CG          13.4800   -12.1520    21.7400 c6         1 3GA      -0.076700
     11 CD          12.6950   -11.4580    22.8580 c6         1 3GA       0.239800
     12 NH1         10.5510   -12.9920    25.3840 n2         1 3GA      -0.916100
     13 NH2         10.8210   -10.7430    24.7440 nv         1 3GA      -0.962800
     14 H21         13.1040   -15.2150    22.1990 hc         1 3GA       0.048200
     15 H22         11.4080   -14.7760    22.2190 hc         1 3GA       0.048200
     16 H31         12.1190   -14.3660    24.4590 h1         1 3GA       0.062200
     17 H32         13.6770   -13.7490    23.9530 h1         1 3GA       0.062200
     18 H           15.9170   -12.9130    20.5630 hn         1 3GA       0.351300
     19 HA          14.2000   -12.3880    18.9960 h1         1 3GA       0.033700
     20 HB1         14.2840   -10.2460    21.1570 hc         1 3GA       0.050200
     21 HB2         12.8820   -10.7530    20.2250 hc         1 3GA       0.050200
     22 H11         13.1590   -13.7920    20.3560 hc         1 3GA       0.038700
     23 H12         11.7110   -12.9380    20.8330 hc         1 3GA       0.038700
     24 HG          14.4190   -12.5280    22.1590 hc         1 3GA       0.066700
     25 HD1         11.9240   -10.8490    22.3720 h1         1 3GA       0.033200
     26 HD2         13.3600   -10.7690    23.3940 h1         1 3GA       0.033200
     27 HN11         9.8740   -12.5680    26.0060 hn         1 3GA       0.378400
     28 H2          16.6630   -12.2150    19.3140 hn         1 3GA       0.351300
     29 HN21         9.9320   -10.5340    25.1700 hn         1 3GA       0.397300
     30 HN22        10.9950   -10.1490    23.9500 hn         1 3GA       0.397300
     31 H3          13.9420   -10.0880    18.1920 h4         1 3GA      -0.014800
     32 CZ          11.1030   -12.0900    24.6480 c2         1 3GA       0.828100
@<TRIPOS>BOND
     1     1     2 1   
     2     1     9 1   
     3     1    14 1   
     4     1    15 1   
     5     2     8 1   
     6     2    16 1   
     7     2    17 1   
     8     3     4 1   
     9     3    18 1   
    10     3    28 1   
    11     4     5 1   
    12     4     7 1   
    13     4    19 1   
    14     5     6 2   
    15     5    31 1   
    16     7    10 1   
    17     7    20 1   
    18     7    21 1   
    19     8    11 1   
    20     8    32 1   
    21     9    10 1   
    22     9    22 1   
    23     9    23 1   
    24    10    11 1   
    25    10    24 1   
    26    11    25 1   
    27    11    26 1   
    28    12    27 1   
    29    12    32 2   
    30    13    29 1   
    31    13    30 1   
    32    13    32 1   
@<TRIPOS>SUBSTRUCTURE
     1 3GA         1 TEMP              0 ****  ****    0 ROOT
