@<TRIPOS>MOLECULE
3GB
  198   200     1     0     0
SMALL
bcc


@<TRIPOS>ATOM
      1 C            4.0210    -5.8030     2.0020 c3         1 3GB       0.175300
      2 N            3.3750    -4.1130     0.3520 ns         1 3GB      -0.584900
      3 O            4.9400    -6.8240     2.2910 oh         1 3GB      -0.581800
      4 C1           7.9920     6.8660     0.5680 c6         1 3GB       0.324900
      5 O1           8.0840     5.5210     0.2220 os         1 3GB      -0.412600
      6 C2           6.5110     7.2560     0.5550 c6         1 3GB       0.086100
      7 O2           5.7190     6.4280     1.3730 oh         1 3GB      -0.584800
      8 C3           5.9730     7.1830    -0.8680 c6         1 3GB       0.114100
      9 O3           4.6370     7.6230    -0.9440 oh         1 3GB      -0.612800
     10 C4           6.8100     8.0870    -1.7700 c6         1 3GB       0.120100
     11 O4           6.6330     9.4430    -1.4350 oh         1 3GB      -0.597800
     12 C5           8.2840     7.7190    -1.6410 c6         1 3GB       0.151100
     13 O5           8.7140     7.7040    -0.2850 os         1 3GB      -0.402600
     14 C6           9.1600     8.6990    -2.3940 c3         1 3GB       0.148400
     15 O6          10.4780     8.2070    -2.4490 oh         1 3GB      -0.583800
     16 CA           4.2220    -5.2630     0.5660 c3         1 3GB       0.053700
     17 CB           5.6760    -4.9120     0.2710 c3         1 3GB       0.132400
     18 CAL          8.5030     2.0910     0.0840 c6         1 3GB       0.328900
     19 CAM          8.8450     3.0210    -1.0800 c6         1 3GB       0.080100
     20 CAN          9.8300     4.0760    -0.5860 c6         1 3GB       0.151100
     21 CAO          9.2420     4.8130     0.6130 c6         1 3GB       0.126100
     22 CAP          8.8900     3.7680     1.6760 c6         1 3GB       0.138100
     23 CAQ          8.2820     4.3760     2.9200 c3         1 3GB       0.146400
     24 OAR          9.4640     2.3240    -2.1350 oh         1 3GB      -0.610800
     25 OAS         10.1760     4.9950    -1.5800 oh         1 3GB      -0.569800
     26 OAU          7.9830     2.8220     1.1560 os         1 3GB      -0.390600
     27 OAV          8.2430     3.3970     3.9300 oh         1 3GB      -0.586800
     28 CAW          5.8270    -1.5390     1.5480 c6         1 3GB       0.070100
     29 CAX          5.9920    -0.1710     0.8890 c6         1 3GB       0.139100
     30 CAY          7.4290    -0.0130     0.4060 c6         1 3GB       0.125100
     31 CAZ          7.8120    -1.2020    -0.4900 c6         1 3GB       0.136100
     32 CBA          9.2780    -1.1790    -0.8700 c3         1 3GB       0.144400
     33 CBB          6.2330    -2.6120     0.5450 c6         1 3GB       0.327900
     34 OBC          6.1200    -3.8620     1.1160 os         1 3GB      -0.398600
     35 OBE          5.6850     0.8690     1.7730 oh         1 3GB      -0.561800
     36 OBF          7.5480     1.1850    -0.3380 os         1 3GB      -0.394600
     37 OBG          7.5770    -2.4180     0.1910 os         1 3GB      -0.409600
     38 OBH          9.5410    -2.2700    -1.7190 oh         1 3GB      -0.584800
     39 CBI         -9.8350   -18.0360    -1.1820 c3         1 3GB      -0.088100
     40 CBJ         -8.4700   -17.4370    -1.4910 c3         1 3GB      -0.074400
     41 CBK         -8.0820   -16.3230    -0.5270 c3         1 3GB      -0.075400
     42 CBL         -6.7170   -15.7140    -0.8250 c3         1 3GB      -0.074400
     43 CBM         -6.3270   -14.6040     0.1430 c3         1 3GB      -0.074400
     44 CBN         -4.9610   -13.9990    -0.1530 c3         1 3GB      -0.074400
     45 CBO         -4.5680   -12.8900     0.8150 c3         1 3GB      -0.074400
     46 CBP         -3.1980   -12.2930     0.5200 c3         1 3GB      -0.074400
     47 CBQ         -2.8020   -11.1840     1.4870 c3         1 3GB      -0.074400
     48 CBR         -1.4230   -10.6030     1.2000 c3         1 3GB      -0.074400
     49 CBS         -1.0250    -9.4890     2.1600 c3         1 3GB      -0.074400
     50 CBT          0.3740    -8.9480     1.8970 c3         1 3GB      -0.073400
     51 CBU          0.7660    -7.8130     2.8440 c3         1 3GB      -0.042200
     52 CBW          2.5910    -6.2100     2.2260 c2         1 3GB      -0.211200
     53 CCC          2.4050    -4.0230    -0.5780 c          1 3GB       0.669100
     54 OCD          2.1130    -4.9350    -1.3390 o          1 3GB      -0.608100
     55 CCE          1.6980    -2.6860    -0.6140 c3         1 3GB      -0.159400
     56 CCF          0.1860    -2.8170    -0.7620 c3         1 3GB      -0.065400
     57 CCG         -0.5160    -1.4710    -0.6300 c3         1 3GB      -0.077400
     58 CCH         -2.0250    -1.5640    -0.8170 c3         1 3GB      -0.074400
     59 CCI         -2.7390    -0.2370    -0.5920 c3         1 3GB      -0.074400
     60 CCJ         -4.2450    -0.3220    -0.8040 c3         1 3GB      -0.074400
     61 CCK         -4.9690     0.9900    -0.5280 c3         1 3GB      -0.074400
     62 CCL         -6.4720     0.9080    -0.7590 c3         1 3GB      -0.074400
     63 CCM         -7.2030     2.2090    -0.4530 c3         1 3GB      -0.074400
     64 CCN         -8.7040     2.1280    -0.6970 c3         1 3GB      -0.074400
     65 CCO         -9.4400     3.4220    -0.3740 c3         1 3GB      -0.074400
     66 CCP        -10.9400     3.3410    -0.6280 c3         1 3GB      -0.074400
     67 CCQ        -11.6800     4.6300    -0.2970 c3         1 3GB      -0.074400
     68 CCR        -13.1790     4.5480    -0.5580 c3         1 3GB      -0.074400
     69 CCS        -13.9230     5.8350    -0.2250 c3         1 3GB      -0.074400
     70 CCT        -15.4200     5.7500    -0.4920 c3         1 3GB      -0.074400
     71 CCU        -16.1670     7.0360    -0.1600 c3         1 3GB      -0.074400
     72 CCV        -17.6630     6.9490    -0.4330 c3         1 3GB      -0.074400
     73 CCW        -18.4130     8.2340    -0.1040 c3         1 3GB      -0.074400
     74 CCX        -19.9080     8.1470    -0.3820 c3         1 3GB      -0.074400
     75 CCY        -20.6600     9.4310    -0.0550 c3         1 3GB      -0.074400
     76 CCZ        -22.1540     9.3430    -0.3390 c3         1 3GB      -0.074400
     77 CDA        -22.9070    10.6260    -0.0130 c3         1 3GB      -0.075400
     78 CDB        -24.4000    10.5410    -0.3020 c3         1 3GB      -0.075400
     79 CDC        -25.1420    11.8280     0.0290 c3         1 3GB      -0.088100
     80 H            4.2580    -4.9880     2.6970 h1         1 3GB       0.081700
     81 HN           3.5580    -3.2990     0.9250 hn         1 3GB       0.330500
     82 HO           4.7560    -7.5750     1.7150 ho         1 3GB       0.402000
     83 H1           8.4160     7.0460     1.5650 h2         1 3GB       0.059700
     84 H2           6.4540     8.2990     0.8920 h1         1 3GB       0.062700
     85 HO2          5.7150     6.7870     2.2650 ho         1 3GB       0.405000
     86 H3           6.0630     6.1510    -1.2330 h1         1 3GB       0.074700
     87 HO3          4.1470     7.2230    -0.2170 ho         1 3GB       0.428000
     88 H4           6.5180     7.9020    -2.8150 h1         1 3GB       0.051700
     89 HO4          5.6860     9.6060    -1.3650 ho         1 3GB       0.422000
     90 H5           8.4150     6.7260    -2.0820 h1         1 3GB       0.078700
     91 H6           8.7350     8.8240    -3.3990 h1         1 3GB       0.033700
     92 H6A          9.1190     9.6800    -1.9060 h1         1 3GB       0.033700
     93 HO6         11.0270     8.8950    -2.8350 ho         1 3GB       0.400000
     94 HA           3.9220    -6.0400    -0.1430 h1         1 3GB       0.088700
     95 HB           6.3190    -5.7770     0.4360 h1         1 3GB       0.064700
     96 HBA          5.7720    -4.6350    -0.7840 h1         1 3GB       0.064700
     97 HAL          9.4270     1.5710     0.4040 h2         1 3GB       0.022700
     98 HAM          7.9250     3.5170    -1.4180 h1         1 3GB       0.082700
     99 HAN         10.7260     3.5490    -0.2160 h1         1 3GB       0.036700
    100 HAO         10.0030     5.4880     1.0240 h1         1 3GB       0.069700
    101 HAP          9.8340     3.2740     1.9640 h1         1 3GB       0.047700
    102 HAQ          8.9000     5.2340     3.2190 h1         1 3GB       0.032700
    103 HAQA         7.2850     4.7600     2.6830 h1         1 3GB       0.032700
    104 HOAR         8.7870     1.8690    -2.6440 ho         1 3GB       0.422000
    105 HOAS        10.5180     4.5050    -2.3350 ho         1 3GB       0.421000
    106 HOAV         7.7290     3.7460     4.6630 ho         1 3GB       0.405000
    107 HAW          6.4910    -1.6000     2.4200 h1         1 3GB       0.074700
    108 HAX          5.3350    -0.1450     0.0030 h1         1 3GB       0.046700
    109 HAY          8.0960     0.0020     1.2800 h1         1 3GB       0.074700
    110 HAZ          7.2000    -1.1580    -1.4060 h1         1 3GB       0.056700
    111 HBAA         9.5020    -0.2270    -1.3610 h1         1 3GB       0.033700
    112 HBAB         9.8820    -1.2190     0.0480 h1         1 3GB       0.033700
    113 HBB          5.5960    -2.5310    -0.3540 h2         1 3GB       0.035700
    114 HOBD         4.4490    -2.0890     2.8120 ho         1 3GB       0.423000
    115 HOBE         4.7840     0.7280     2.0830 ho         1 3GB       0.412000
    116 HOBH        10.4440    -2.1850    -2.0380 ho         1 3GB       0.406000
    117 HBI         -9.8620   -18.4530    -0.1730 hc         1 3GB       0.031367
    118 HBIA       -10.6200   -17.2810    -1.2450 hc         1 3GB       0.031367
    119 HBIB       -10.0910   -18.8370    -1.8770 hc         1 3GB       0.031367
    120 HBJ         -7.7090   -18.2240    -1.4600 hc         1 3GB       0.036700
    121 HBJA        -8.4620   -17.0490    -2.5140 hc         1 3GB       0.036700
    122 HBK         -8.8450   -15.5370    -0.5570 hc         1 3GB       0.036700
    123 HBKA        -8.0890   -16.7110     0.4980 hc         1 3GB       0.036700
    124 HBL         -5.9560   -16.5020    -0.7980 hc         1 3GB       0.036700
    125 HBLA        -6.7100   -15.3230    -1.8480 hc         1 3GB       0.036700
    126 HBM         -7.0880   -13.8150     0.1170 hc         1 3GB       0.036700
    127 HBMA        -6.3350   -14.9960     1.1670 hc         1 3GB       0.036700
    128 HBN         -4.2020   -14.7890    -0.1280 hc         1 3GB       0.037200
    129 HBNA        -4.9530   -13.6070    -1.1770 hc         1 3GB       0.037200
    130 HBO         -5.3240   -12.0980     0.7860 hc         1 3GB       0.036700
    131 HBOA        -4.5800   -13.2810     1.8390 hc         1 3GB       0.036700
    132 HBP         -2.4430   -13.0870     0.5510 hc         1 3GB       0.037200
    133 HBPA        -3.1850   -11.9040    -0.5040 hc         1 3GB       0.037200
    134 HBQ         -3.5490   -10.3830     1.4480 hc         1 3GB       0.036700
    135 HBQA        -2.8260   -11.5690     2.5120 hc         1 3GB       0.036700
    136 HBR         -0.6770   -11.4050     1.2460 hc         1 3GB       0.038200
    137 HBRA        -1.3950   -10.2240     0.1720 hc         1 3GB       0.038200
    138 HBS         -1.7530    -8.6730     2.0930 hc         1 3GB       0.036700
    139 HBSA        -1.0790    -9.8590     3.1900 hc         1 3GB       0.036700
    140 HBT          1.1000    -9.7640     1.9880 hc         1 3GB       0.042200
    141 HBTA         0.4440    -8.5930     0.8640 hc         1 3GB       0.042200
    142 HBU          0.0990    -6.9600     2.6970 hc         1 3GB       0.045200
    143 HBUA         0.6190    -8.1520     3.8760 hc         1 3GB       0.045200
    144 HBV          2.9290    -8.1660     2.8920 ha         1 3GB       0.120000
    145 HBW          1.8460    -5.4470     2.0140 ha         1 3GB       0.130000
    146 HCE          1.9340    -2.1000     0.2770 hc         1 3GB       0.059200
    147 HCEA         2.1000    -2.1220    -1.4620 hc         1 3GB       0.059200
    148 HCF         -0.0530    -3.2670    -1.7280 hc         1 3GB       0.052700
    149 HCFA        -0.2030    -3.4990     0.0020 hc         1 3GB       0.052700
    150 HCG         -0.2990    -1.0490     0.3570 hc         1 3GB       0.036700
    151 HCGA        -0.1010    -0.7660    -1.3580 hc         1 3GB       0.036700
    152 HCH         -2.2420    -1.9300    -1.8270 hc         1 3GB       0.039700
    153 HCHA        -2.4320    -2.3140    -0.1300 hc         1 3GB       0.039700
    154 HCI         -2.5370     0.1140     0.4260 hc         1 3GB       0.036700
    155 HCIA        -2.3200     0.5230    -1.2610 hc         1 3GB       0.036700
    156 HCJ         -4.4470    -0.6410    -1.8330 hc         1 3GB       0.037700
    157 HCJA        -4.6600    -1.1050    -0.1600 hc         1 3GB       0.037700
    158 HCK         -4.7780     1.2990     0.5060 hc         1 3GB       0.037200
    159 HCL         -6.6620     0.6190    -1.7980 hc         1 3GB       0.037200
    160 HCM         -7.0210     2.4920     0.5910 hc         1 3GB       0.036700
    161 HCMA        -6.7790     3.0170    -1.0600 hc         1 3GB       0.036700
    162 HCN         -8.8850     1.8580    -1.7430 hc         1 3GB       0.037200
    163 HCNA        -9.1260     1.3130    -0.0990 hc         1 3GB       0.037200
    164 HCO         -9.2650     3.6890     0.6750 hc         1 3GB       0.036700
    165 HCOA        -9.0150     4.2400    -0.9670 hc         1 3GB       0.036700
    166 HCP        -11.1140     3.0800    -1.6780 hc         1 3GB       0.037200
    167 HCPA       -11.3640     2.5190    -0.0400 hc         1 3GB       0.037200
    168 HCQ        -11.5100     4.8880     0.7550 hc         1 3GB       0.036700
    169 HCQA       -11.2540     5.4540    -0.8810 hc         1 3GB       0.036700
    170 HCR        -13.3480     4.2920    -1.6100 hc         1 3GB       0.036700
    171 HCRA       -13.6040     3.7220     0.0240 hc         1 3GB       0.036700
    172 HCS        -13.7570     6.0890     0.8280 hc         1 3GB       0.036700
    173 HCSA       -13.4960     6.6610    -0.8040 hc         1 3GB       0.036700
    174 HCT        -15.5850     5.4960    -1.5450 hc         1 3GB       0.037200
    175 HCTA       -15.8460     4.9230     0.0870 hc         1 3GB       0.037200
    176 HCU        -16.0060     7.2890     0.8940 hc         1 3GB       0.037200
    177 HCUA       -15.7390     7.8630    -0.7370 hc         1 3GB       0.037200
    178 HCV        -17.8240     6.6950    -1.4870 hc         1 3GB       0.036700
    179 HCVA       -18.0910     6.1220     0.1440 hc         1 3GB       0.036700
    180 HCW        -18.2560     8.4870     0.9510 hc         1 3GB       0.036700
    181 HCWA       -17.9840     9.0620    -0.6790 hc         1 3GB       0.036700
    182 HCX        -20.0640     7.8930    -1.4370 hc         1 3GB       0.036700
    183 HCXA       -20.3370     7.3190     0.1930 hc         1 3GB       0.036700
    184 HCY        -20.5060     9.6840     1.0000 hc         1 3GB       0.036700
    185 HCYA       -20.2290    10.2590    -0.6280 hc         1 3GB       0.036700
    186 HCZ        -22.3060     9.0900    -1.3950 hc         1 3GB       0.036700
    187 HCZA       -22.5840     8.5140     0.2340 hc         1 3GB       0.036700
    188 HDA        -22.7580    10.8780     1.0430 hc         1 3GB       0.036700
    189 HDAA       -22.4740    11.4570    -0.5830 hc         1 3GB       0.036700
    190 HDB        -24.5490    10.2920    -1.3580 hc         1 3GB       0.036700
    191 HDBA       -24.8310     9.7110     0.2670 hc         1 3GB       0.036700
    192 HDC        -24.7440    12.6690    -0.5410 hc         1 3GB       0.031367
    193 HDCA       -26.2060    11.7490    -0.1970 hc         1 3GB       0.031367
    194 HDCB       -25.0470    12.0760     1.0880 hc         1 3GB       0.031367
    195 HCLA        -6.8910     0.1040    -0.1420 hc         1 3GB       0.037200
    196 HCKA        -4.5470     1.7800    -1.1600 hc         1 3GB       0.037200
    197 OBD          4.4760    -1.6870     1.9380 oh         1 3GB      -0.614800
    198 CBV          2.1920    -7.4010     2.6610 c2         1 3GB      -0.150200
@<TRIPOS>BOND
     1     1     3 1   
     2     1    16 1   
     3     1    52 1   
     4     1    80 1   
     5     2    16 1   
     6     2    53 1   
     7     2    81 1   
     8     3    82 1   
     9     4     5 1   
    10     4     6 1   
    11     4    13 1   
    12     4    83 1   
    13     5    21 1   
    14     6     7 1   
    15     6     8 1   
    16     6    84 1   
    17     7    85 1   
    18     8     9 1   
    19     8    10 1   
    20     8    86 1   
    21     9    87 1   
    22    10    11 1   
    23    10    12 1   
    24    10    88 1   
    25    11    89 1   
    26    12    13 1   
    27    12    14 1   
    28    12    90 1   
    29    14    15 1   
    30    14    91 1   
    31    14    92 1   
    32    15    93 1   
    33    16    17 1   
    34    16    94 1   
    35    17    34 1   
    36    17    95 1   
    37    17    96 1   
    38    18    19 1   
    39    18    26 1   
    40    18    36 1   
    41    18    97 1   
    42    19    20 1   
    43    19    24 1   
    44    19    98 1   
    45    20    21 1   
    46    20    25 1   
    47    20    99 1   
    48    21    22 1   
    49    21   100 1   
    50    22    23 1   
    51    22    26 1   
    52    22   101 1   
    53    23    27 1   
    54    23   102 1   
    55    23   103 1   
    56    24   104 1   
    57    25   105 1   
    58    27   106 1   
    59    28    29 1   
    60    28    33 1   
    61    28   107 1   
    62    28   197 1   
    63    29    30 1   
    64    29    35 1   
    65    29   108 1   
    66    30    31 1   
    67    30    36 1   
    68    30   109 1   
    69    31    32 1   
    70    31    37 1   
    71    31   110 1   
    72    32    38 1   
    73    32   111 1   
    74    32   112 1   
    75    33    34 1   
    76    33    37 1   
    77    33   113 1   
    78    35   115 1   
    79    38   116 1   
    80    39    40 1   
    81    39   117 1   
    82    39   118 1   
    83    39   119 1   
    84    40    41 1   
    85    40   120 1   
    86    40   121 1   
    87    41    42 1   
    88    41   122 1   
    89    41   123 1   
    90    42    43 1   
    91    42   124 1   
    92    42   125 1   
    93    43    44 1   
    94    43   126 1   
    95    43   127 1   
    96    44    45 1   
    97    44   128 1   
    98    44   129 1   
    99    45    46 1   
   100    45   130 1   
   101    45   131 1   
   102    46    47 1   
   103    46   132 1   
   104    46   133 1   
   105    47    48 1   
   106    47   134 1   
   107    47   135 1   
   108    48    49 1   
   109    48   136 1   
   110    48   137 1   
   111    49    50 1   
   112    49   138 1   
   113    49   139 1   
   114    50    51 1   
   115    50   140 1   
   116    50   141 1   
   117    51   142 1   
   118    51   143 1   
   119    51   198 1   
   120    52   145 1   
   121    52   198 2   
   122    53    54 2   
   123    53    55 1   
   124    55    56 1   
   125    55   146 1   
   126    55   147 1   
   127    56    57 1   
   128    56   148 1   
   129    56   149 1   
   130    57    58 1   
   131    57   150 1   
   132    57   151 1   
   133    58    59 1   
   134    58   152 1   
   135    58   153 1   
   136    59    60 1   
   137    59   154 1   
   138    59   155 1   
   139    60    61 1   
   140    60   156 1   
   141    60   157 1   
   142    61    62 1   
   143    61   158 1   
   144    61   196 1   
   145    62    63 1   
   146    62   159 1   
   147    62   195 1   
   148    63    64 1   
   149    63   160 1   
   150    63   161 1   
   151    64    65 1   
   152    64   162 1   
   153    64   163 1   
   154    65    66 1   
   155    65   164 1   
   156    65   165 1   
   157    66    67 1   
   158    66   166 1   
   159    66   167 1   
   160    67    68 1   
   161    67   168 1   
   162    67   169 1   
   163    68    69 1   
   164    68   170 1   
   165    68   171 1   
   166    69    70 1   
   167    69   172 1   
   168    69   173 1   
   169    70    71 1   
   170    70   174 1   
   171    70   175 1   
   172    71    72 1   
   173    71   176 1   
   174    71   177 1   
   175    72    73 1   
   176    72   178 1   
   177    72   179 1   
   178    73    74 1   
   179    73   180 1   
   180    73   181 1   
   181    74    75 1   
   182    74   182 1   
   183    74   183 1   
   184    75    76 1   
   185    75   184 1   
   186    75   185 1   
   187    76    77 1   
   188    76   186 1   
   189    76   187 1   
   190    77    78 1   
   191    77   188 1   
   192    77   189 1   
   193    78    79 1   
   194    78   190 1   
   195    78   191 1   
   196    79   192 1   
   197    79   193 1   
   198    79   194 1   
   199   114   197 1   
   200   144   198 1   
@<TRIPOS>SUBSTRUCTURE
     1 3GB         1 TEMP              0 ****  ****    0 ROOT
