@<TRIPOS>MOLECULE
3GB
  198   200     1     0     0
SMALL
No Charge or Current Charge


@<TRIPOS>ATOM
      1 C            3.6950    -5.7350    -0.8260 c3         1 3GB       0.198500
      2 N            3.0540    -3.4830    -1.7510 ns         1 3GB      -0.517900
      3 O            4.3080    -6.9740    -1.1790 oh         1 3GB      -0.644000
      4 C1          10.9280     5.2570     2.0880 c6         1 3GB       0.371300
      5 O1           9.5940     4.8240     1.7300 os         1 3GB      -0.459000
      6 C2          11.0780     5.2820     3.6470 c6         1 3GB       0.109300
      7 O2          10.7000     4.0160     4.2440 oh         1 3GB      -0.707000
      8 C3          10.2160     6.4320     4.2580 c6         1 3GB       0.137300
      9 O3          10.4520     6.5150     5.6780 oh         1 3GB      -0.675000
     10 C4          10.5250     7.7970     3.5750 c6         1 3GB       0.143300
     11 O4          11.8510     8.2230     3.9540 oh         1 3GB      -0.720000
     12 C5          10.3570     7.6310     2.0290 c6         1 3GB       0.174300
     13 O5          11.2030     6.5600     1.5280 os         1 3GB      -0.449000
     14 C6          10.6910     8.9440     1.2450 c3         1 3GB       0.171600
     15 O6          10.5230     8.8190    -0.1830 oh         1 3GB      -0.706000
     16 CA           3.8440    -4.7100    -1.9880 c3         1 3GB       0.053700
     17 CB           5.3280    -4.4110    -2.3680 c3         1 3GB       0.155600
     18 CAL          7.3840     2.3920     0.0490 c6         1 3GB       0.375300
     19 CAM          6.9180     3.7650     0.6250 c6         1 3GB       0.103300
     20 CAN          7.8020     4.8850     0.0110 c6         1 3GB       0.174300
     21 CAO          9.3160     4.6160     0.3130 c6         1 3GB       0.149300
     22 CAP          9.6620     3.1690    -0.1980 c6         1 3GB       0.161300
     23 CAQ         11.1310     2.6950     0.0370 c3         1 3GB       0.169600
     24 OAR          5.5130     4.0370     0.3740 oh         1 3GB      -0.733000
     25 OAS          7.3400     6.1530     0.5070 oh         1 3GB      -0.692000
     26 OAU          8.7660     2.1880     0.3910 os         1 3GB      -0.437000
     27 OAV         11.4260     1.4400    -0.6090 oh         1 3GB      -0.709000
     28 CAW          6.8670    -2.5060     0.5620 c6         1 3GB       0.093300
     29 CAX          6.6280    -1.0930     1.1550 c6         1 3GB       0.162300
     30 CAY          6.8090    -0.0030     0.0470 c6         1 3GB       0.148300
     31 CAZ          5.8590    -0.3460    -1.1540 c6         1 3GB       0.159300
     32 CBA          5.9800     0.6230    -2.3760 c3         1 3GB       0.167600
     33 CBB          5.8910    -2.7180    -0.6380 c6         1 3GB       0.374300
     34 OBC          6.1200    -4.0150    -1.2200 os         1 3GB      -0.445000
     35 OBE          7.5100    -0.9080     2.2750 oh         1 3GB      -0.684000
     36 OBF          6.5870     1.3240     0.6030 os         1 3GB      -0.441000
     37 OBG          6.1330    -1.6950    -1.6220 os         1 3GB      -0.456000
     38 OBH          5.1880     0.2180    -3.5100 oh         1 3GB      -0.707000
     39 CBI         -9.7300   -18.3140     3.1660 c3         1 3GB      -0.088100
     40 CBJ         -8.2570   -17.9230     2.9380 c3         1 3GB      -0.074400
     41 CBK         -8.0420   -16.3950     2.8600 c3         1 3GB      -0.075400
     42 CBL         -6.5660   -16.0020     2.6280 c3         1 3GB      -0.074400
     43 CBM         -6.3540   -14.4750     2.5460 c3         1 3GB      -0.074400
     44 CBN         -4.8810   -14.0800     2.3050 c3         1 3GB      -0.074400
     45 CBO         -4.6740   -12.5520     2.2120 c3         1 3GB      -0.074400
     46 CBP         -3.2030   -12.1550     1.9600 c3         1 3GB      -0.074400
     47 CBQ         -2.9990   -10.6280     1.8500 c3         1 3GB      -0.074400
     48 CBR         -1.5290   -10.2340     1.5880 c3         1 3GB      -0.074400
     49 CBS         -1.3240    -8.7090     1.4540 c3         1 3GB      -0.074400
     50 CBT          0.1450    -8.3220     1.1750 c3         1 3GB      -0.073400
     51 CBU          0.3550    -6.8030     1.0070 c3         1 3GB      -0.042200
     52 CBW          2.2510    -6.0450    -0.4970 c2         1 3GB      -0.261200
     53 CCC          2.6500    -2.6120    -2.7380 c          1 3GB       0.602100
     54 OCD          2.9020    -2.8020    -3.9190 o          1 3GB      -0.608100
     55 CCE          1.8780    -1.3850    -2.2440 c3         1 3GB      -0.159400
     56 CCF          0.3730    -1.4950    -2.5790 c3         1 3GB      -0.065400
     57 CCG         -0.4450    -0.2650    -2.1280 c3         1 3GB      -0.077400
     58 CCH         -1.9440    -0.3820    -2.4820 c3         1 3GB      -0.074400
     59 CCI         -2.7730     0.8490    -2.0520 c3         1 3GB      -0.074400
     60 CCJ         -4.2690     0.7170    -2.4140 c3         1 3GB      -0.074400
     61 CCK         -5.1110     1.9430    -1.9950 c3         1 3GB      -0.074400
     62 CCL         -6.6070     1.7870    -2.3480 c3         1 3GB      -0.074400
     63 CCM         -7.4650     2.9990    -1.9240 c3         1 3GB      -0.074400
     64 CCN         -8.9630     2.8130    -2.2530 c3         1 3GB      -0.074400
     65 CCO         -9.8380     4.0070    -1.8120 c3         1 3GB      -0.074400
     66 CCP        -11.3380     3.7910    -2.1100 c3         1 3GB      -0.074400
     67 CCQ        -12.2270     4.9660    -1.6470 c3         1 3GB      -0.074400
     68 CCR        -13.7290     4.7210    -1.9120 c3         1 3GB      -0.074400
     69 CCS        -14.6310     5.8770    -1.4290 c3         1 3GB      -0.074400
     70 CCT        -16.1330     5.6010    -1.6620 c3         1 3GB      -0.074400
     71 CCU        -17.0480     6.7380    -1.1570 c3         1 3GB      -0.074400
     72 CCV        -18.5490     6.4340    -1.3610 c3         1 3GB      -0.074400
     73 CCW        -19.4740     7.5550    -0.8360 c3         1 3GB      -0.074400
     74 CCX        -20.9730     7.2300    -1.0140 c3         1 3GB      -0.074400
     75 CCY        -21.9020     8.3410    -0.4760 c3         1 3GB      -0.074400
     76 CCZ        -23.4010     8.0030    -0.6340 c3         1 3GB      -0.074400
     77 CDA        -24.3310     9.1090    -0.0880 c3         1 3GB      -0.075400
     78 CDB        -25.8300     8.7640    -0.2360 c3         1 3GB      -0.075400
     79 CDC        -26.7600     9.8640     0.3110 c3         1 3GB      -0.088100
     80 H            4.1770    -5.3160     0.0690 h1         1 3GB       0.081700
     81 HN           2.7540    -3.2720    -0.8070 hn         1 3GB       0.330500
     82 HO           3.9140    -7.6480    -0.5840 ho         1 3GB       0.441000
     83 H1          11.6700     4.5500     1.6950 h2         1 3GB       0.059700
     84 H2          12.1360     5.4900     3.8680 h1         1 3GB       0.062700
     85 HO2          9.9350     3.6830     3.7160 ho         1 3GB       0.504000
     86 H3           9.1560     6.1990     4.0700 h1         1 3GB       0.074700
     87 HO3         10.4920     5.5790     5.9870 ho         1 3GB       0.467000
     88 H4           9.7840     8.5320     3.9240 h1         1 3GB       0.051700
     89 HO4         11.9280     7.9570     4.9030 ho         1 3GB       0.521000
     90 H5           9.3080     7.3840     1.8150 h1         1 3GB       0.078700
     91 H6          10.0420     9.7430     1.6300 h1         1 3GB       0.033700
     92 H6A         11.7260     9.2290     1.4740 h1         1 3GB       0.033700
     93 HO6         10.8290     9.6660    -0.5830 ho         1 3GB       0.499000
     94 HA           3.4020    -5.1890    -2.8720 h1         1 3GB       0.088700
     95 HB           5.7560    -5.3250    -2.8000 h1         1 3GB       0.064700
     96 HBA          5.3650    -3.6460    -3.1540 h1         1 3GB       0.064700
     97 HAL          7.2840     2.4100    -1.0440 h2         1 3GB       0.022700
     98 HAM          7.1030     3.7400     1.7100 h1         1 3GB       0.082700
     99 HAN          7.6690     4.8580    -1.0820 h1         1 3GB       0.036700
    100 HAO          9.8990     5.3420    -0.2730 h1         1 3GB       0.069700
    101 HAP          9.5040     3.1570    -1.2870 h1         1 3GB       0.047700
    102 HAQ         11.8090     3.4760    -0.3360 h1         1 3GB       0.032700
    103 HAQA        11.2930     2.5970     1.1190 h1         1 3GB       0.032700
    104 HOAR         5.0160     3.2420     0.6890 ho         1 3GB       0.521000
    105 HOAS         6.3660     6.0190     0.6000 ho         1 3GB       0.520000
    106 HOAV        12.3390     1.1840    -0.3410 ho         1 3GB       0.504000
    107 HAW          7.8890    -2.5350     0.1530 h1         1 3GB       0.074700
    108 HAX          5.5850    -1.0450     1.5040 h1         1 3GB       0.046700
    109 HAY          7.8480    -0.0690    -0.3090 h1         1 3GB       0.074700
    110 HAZ          4.8160    -0.3060    -0.8040 h1         1 3GB       0.056700
    111 HBAA         5.6580     1.6210    -2.0530 h1         1 3GB       0.033700
    112 HBAB         7.0390     0.6890    -2.6600 h1         1 3GB       0.033700
    113 HBB          4.8570    -2.6480    -0.2730 h2         1 3GB       0.035700
    114 HOBD         6.7640    -4.3920     1.1250 ho         1 3GB       0.522000
    115 HOBE         7.5510    -1.8050     2.6880 ho         1 3GB       0.511000
    116 HOBH         5.4200     0.8160    -4.2560 ho         1 3GB       0.505000
    117 HBI        -10.1020   -17.8920     4.1080 hc         1 3GB       0.031367
    118 HBIA       -10.3610   -17.9460     2.3480 hc         1 3GB       0.031367
    119 HBIB        -9.8330   -19.4050     3.2150 hc         1 3GB       0.031367
    120 HBJ         -7.6480   -18.3340     3.7520 hc         1 3GB       0.036700
    121 HBJA        -7.9050   -18.3870     2.0080 hc         1 3GB       0.036700
    122 HBK         -8.6560   -15.9870     2.0470 hc         1 3GB       0.036700
    123 HBKA        -8.3960   -15.9340     3.7910 hc         1 3GB       0.036700
    124 HBL         -5.9520   -16.4080     3.4410 hc         1 3GB       0.036700
    125 HBLA        -6.2130   -16.4650     1.6970 hc         1 3GB       0.036700
    126 HBM         -6.9730   -14.0680     1.7360 hc         1 3GB       0.036700
    127 HBMA        -6.7030   -14.0120     3.4790 hc         1 3GB       0.036700
    128 HBN         -4.2620   -14.4790     3.1190 hc         1 3GB       0.037200
    129 HBNA        -4.5300   -14.5470     1.3760 hc         1 3GB       0.037200
    130 HBO         -5.2970   -12.1530     1.4020 hc         1 3GB       0.036700
    131 HBOA        -5.0190   -12.0840     3.1430 hc         1 3GB       0.036700
    132 HBP         -2.5790   -12.5450     2.7750 hc         1 3GB       0.037200
    133 HBPA        -2.8550   -12.6320     1.0350 hc         1 3GB       0.037200
    134 HBQ         -3.6260   -10.2390     1.0380 hc         1 3GB       0.036700
    135 HBQA        -3.3400   -10.1500     2.7770 hc         1 3GB       0.036700
    136 HBR         -0.9020   -10.6120     2.4060 hc         1 3GB       0.038200
    137 HBRA        -1.1850   -10.7240     0.6680 hc         1 3GB       0.038200
    138 HBS         -1.9570    -8.3310     0.6420 hc         1 3GB       0.036700
    139 HBSA        -1.6580    -8.2170     2.3770 hc         1 3GB       0.036700
    140 HBT          0.7770    -8.6840     1.9950 hc         1 3GB       0.042200
    141 HBTA         0.4830    -8.8300     0.2620 hc         1 3GB       0.042200
    142 HBU         -0.2990    -6.4420     0.2030 hc         1 3GB       0.045200
    143 HBUA         0.0380    -6.2860     1.9210 hc         1 3GB       0.045200
    144 HBV          2.4820    -6.5950     1.5400 ha         1 3GB       0.170000
    145 HBW          1.5620    -5.9230    -1.3350 ha         1 3GB       0.180000
    146 HCE          1.9890    -1.2810    -1.1580 hc         1 3GB       0.059200
    147 HCEA         2.2820    -0.4960    -2.7440 hc         1 3GB       0.059200
    148 HCF          0.2540    -1.6260    -3.6620 hc         1 3GB       0.052700
    149 HCFA        -0.0360    -2.3960    -2.1030 hc         1 3GB       0.052700
    150 HCG         -0.3390    -0.1370    -1.0430 hc         1 3GB       0.036700
    151 HCGA        -0.0320     0.6360    -2.6000 hc         1 3GB       0.036700
    152 HCH         -2.0470    -0.5220    -3.5650 hc         1 3GB       0.039700
    153 HCHA        -2.3570    -1.2780    -2.0030 hc         1 3GB       0.039700
    154 HCI         -2.6740     0.9910    -0.9690 hc         1 3GB       0.036700
    155 HCIA        -2.3630     1.7470    -2.5330 hc         1 3GB       0.036700
    156 HCJ         -4.3650     0.5690    -3.4970 hc         1 3GB       0.037700
    157 HCJA        -4.6760    -0.1800    -1.9310 hc         1 3GB       0.037700
    158 HCK         -5.0100     2.0970    -0.9130 hc         1 3GB       0.037200
    159 HCL         -6.7080     1.6360    -3.4300 hc         1 3GB       0.037200
    160 HCM         -7.3520     3.1610    -0.8450 hc         1 3GB       0.036700
    161 HCMA        -7.0930     3.9000    -2.4260 hc         1 3GB       0.036700
    162 HCN         -9.0780     2.6630    -3.3340 hc         1 3GB       0.037200
    163 HCNA        -9.3270     1.9020    -1.7630 hc         1 3GB       0.037200
    164 HCO         -9.7060     4.1710    -0.7350 hc         1 3GB       0.036700
    165 HCOA        -9.4950     4.9160    -2.3210 hc         1 3GB       0.036700
    166 HCP        -11.4740     3.6390    -3.1880 hc         1 3GB       0.037200
    167 HCPA       -11.6730     2.8720    -1.6130 hc         1 3GB       0.037200
    168 HCQ        -12.0740     5.1320    -0.5730 hc         1 3GB       0.036700
    169 HCQA       -11.9130     5.8830    -2.1620 hc         1 3GB       0.036700
    170 HCR        -13.8850     4.5660    -2.9870 hc         1 3GB       0.036700
    171 HCRA       -14.0340     3.7950    -1.4080 hc         1 3GB       0.036700
    172 HCS        -14.4590     6.0450    -0.3580 hc         1 3GB       0.036700
    173 HCSA       -14.3470     6.8010    -1.9490 hc         1 3GB       0.036700
    174 HCT        -16.3090     5.4460    -2.7340 hc         1 3GB       0.037200
    175 HCTA       -16.4090     4.6680    -1.1550 hc         1 3GB       0.037200
    176 HCU        -16.8580     6.9060    -0.0890 hc         1 3GB       0.037200
    177 HCUA       -16.7920     7.6680    -1.6790 hc         1 3GB       0.037200
    178 HCV        -18.7440     6.2770    -2.4300 hc         1 3GB       0.036700
    179 HCVA       -18.7980     5.4950    -0.8500 hc         1 3GB       0.036700
    180 HCW        -19.2660     7.7230     0.2290 hc         1 3GB       0.036700
    181 HCWA       -19.2410     8.4900    -1.3600 hc         1 3GB       0.036700
    182 HCX        -21.1840     7.0680    -2.0790 hc         1 3GB       0.036700
    183 HCXA       -21.2010     6.2890    -0.4960 hc         1 3GB       0.036700
    184 HCY        -21.6820     8.5110     0.5860 hc         1 3GB       0.036700
    185 HCYA       -21.6850     9.2790    -1.0030 hc         1 3GB       0.036700
    186 HCZ        -23.6230     7.8350    -1.6960 hc         1 3GB       0.036700
    187 HCZA       -23.6150     7.0620    -0.1100 hc         1 3GB       0.036700
    188 HDA        -24.1050     9.2800     0.9720 hc         1 3GB       0.036700
    189 HDAA       -24.1230    10.0480    -0.6170 hc         1 3GB       0.036700
    190 HDB        -26.0610     8.5950    -1.2960 hc         1 3GB       0.036700
    191 HDBA       -26.0410     7.8240     0.2910 hc         1 3GB       0.036700
    192 HDC        -26.5980    10.8090    -0.2220 hc         1 3GB       0.031367
    193 HDCA       -27.8100     9.5740     0.1850 hc         1 3GB       0.031367
    194 HDCB       -26.5760    10.0320     1.3790 hc         1 3GB       0.031367
    195 HCLA        -6.9970     0.8840    -1.8620 hc         1 3GB       0.037200
    196 HCKA        -4.7150     2.8400    -2.4870 hc         1 3GB       0.037200
    197 OBD          6.7270    -3.5200     1.5900 oh         1 3GB      -0.737000
    198 CBV          1.7980    -6.4650     0.6970 c2         1 3GB      -0.200200
@<TRIPOS>BOND
     1     1     3 1   
     2     1    16 1   
     3     1    52 1   
     4     1    80 1   
     5     2    16 1   
     6     2    53 1   
     7     2    81 1   
     8     3    82 1   
     9     4     5 1   
    10     4     6 1   
    11     4    13 1   
    12     4    83 1   
    13     5    21 1   
    14     6     7 1   
    15     6     8 1   
    16     6    84 1   
    17     7    85 1   
    18     8     9 1   
    19     8    10 1   
    20     8    86 1   
    21     9    87 1   
    22    10    11 1   
    23    10    12 1   
    24    10    88 1   
    25    11    89 1   
    26    12    13 1   
    27    12    14 1   
    28    12    90 1   
    29    14    15 1   
    30    14    91 1   
    31    14    92 1   
    32    15    93 1   
    33    16    17 1   
    34    16    94 1   
    35    17    34 1   
    36    17    95 1   
    37    17    96 1   
    38    18    19 1   
    39    18    26 1   
    40    18    36 1   
    41    18    97 1   
    42    19    20 1   
    43    19    24 1   
    44    19    98 1   
    45    20    21 1   
    46    20    25 1   
    47    20    99 1   
    48    21    22 1   
    49    21   100 1   
    50    22    23 1   
    51    22    26 1   
    52    22   101 1   
    53    23    27 1   
    54    23   102 1   
    55    23   103 1   
    56    24   104 1   
    57    25   105 1   
    58    27   106 1   
    59    28    29 1   
    60    28    33 1   
    61    28   107 1   
    62    28   197 1   
    63    29    30 1   
    64    29    35 1   
    65    29   108 1   
    66    30    31 1   
    67    30    36 1   
    68    30   109 1   
    69    31    32 1   
    70    31    37 1   
    71    31   110 1   
    72    32    38 1   
    73    32   111 1   
    74    32   112 1   
    75    33    34 1   
    76    33    37 1   
    77    33   113 1   
    78    35   115 1   
    79    38   116 1   
    80    39    40 1   
    81    39   117 1   
    82    39   118 1   
    83    39   119 1   
    84    40    41 1   
    85    40   120 1   
    86    40   121 1   
    87    41    42 1   
    88    41   122 1   
    89    41   123 1   
    90    42    43 1   
    91    42   124 1   
    92    42   125 1   
    93    43    44 1   
    94    43   126 1   
    95    43   127 1   
    96    44    45 1   
    97    44   128 1   
    98    44   129 1   
    99    45    46 1   
   100    45   130 1   
   101    45   131 1   
   102    46    47 1   
   103    46   132 1   
   104    46   133 1   
   105    47    48 1   
   106    47   134 1   
   107    47   135 1   
   108    48    49 1   
   109    48   136 1   
   110    48   137 1   
   111    49    50 1   
   112    49   138 1   
   113    49   139 1   
   114    50    51 1   
   115    50   140 1   
   116    50   141 1   
   117    51   142 1   
   118    51   143 1   
   119    51   198 1   
   120    52   145 1   
   121    52   198 2   
   122    53    54 2   
   123    53    55 1   
   124    55    56 1   
   125    55   146 1   
   126    55   147 1   
   127    56    57 1   
   128    56   148 1   
   129    56   149 1   
   130    57    58 1   
   131    57   150 1   
   132    57   151 1   
   133    58    59 1   
   134    58   152 1   
   135    58   153 1   
   136    59    60 1   
   137    59   154 1   
   138    59   155 1   
   139    60    61 1   
   140    60   156 1   
   141    60   157 1   
   142    61    62 1   
   143    61   158 1   
   144    61   196 1   
   145    62    63 1   
   146    62   159 1   
   147    62   195 1   
   148    63    64 1   
   149    63   160 1   
   150    63   161 1   
   151    64    65 1   
   152    64   162 1   
   153    64   163 1   
   154    65    66 1   
   155    65   164 1   
   156    65   165 1   
   157    66    67 1   
   158    66   166 1   
   159    66   167 1   
   160    67    68 1   
   161    67   168 1   
   162    67   169 1   
   163    68    69 1   
   164    68   170 1   
   165    68   171 1   
   166    69    70 1   
   167    69   172 1   
   168    69   173 1   
   169    70    71 1   
   170    70   174 1   
   171    70   175 1   
   172    71    72 1   
   173    71   176 1   
   174    71   177 1   
   175    72    73 1   
   176    72   178 1   
   177    72   179 1   
   178    73    74 1   
   179    73   180 1   
   180    73   181 1   
   181    74    75 1   
   182    74   182 1   
   183    74   183 1   
   184    75    76 1   
   185    75   184 1   
   186    75   185 1   
   187    76    77 1   
   188    76   186 1   
   189    76   187 1   
   190    77    78 1   
   191    77   188 1   
   192    77   189 1   
   193    78    79 1   
   194    78   190 1   
   195    78   191 1   
   196    79   192 1   
   197    79   193 1   
   198    79   194 1   
   199   114   197 1   
   200   144   198 1   
@<TRIPOS>SUBSTRUCTURE
     1 3GB         1 TEMP              0 ****  ****    0 ROOT
