@<TRIPOS>MOLECULE
3GC
   28    27     1     0     0
SMALL
abcg2


@<TRIPOS>ATOM
      1 N1           0.9500     1.4950     3.7930 n8         1 3GC      -0.998200
      2 CA1         -0.2590     0.7680     3.4400 c3         1 3GC       0.021500
      3 C1          -0.7110    -0.1350     4.6080 c          1 3GC       0.726000
      4 O11          0.1690    -0.5230     5.4030 o          1 3GC      -0.743500
      5 O12         -1.9200    -0.4420     4.6310 o          1 3GC      -0.743500
      6 CB1         -0.1410    -0.1100     2.1830 c3         1 3GC      -0.091400
      7 CG1          0.1380     0.6850     0.9150 c3         1 3GC      -0.160400
      8 CD1          0.3250    -0.1870    -0.3080 c          1 3GC       0.611100
      9 OE1          0.9020    -1.2650    -0.2520 o          1 3GC      -0.629100
     10 N2          -0.1890     0.3100    -1.4470 ns         1 3GC      -0.464900
     11 CA2          0.1540    -0.2110    -2.7470 c3         1 3GC      -0.041300
     12 C2           1.5260     0.3100    -3.2660 c          1 3GC       0.714000
     13 O2           1.8110    -0.0340    -4.4300 o          1 3GC      -0.724500
     14 CB2         -0.9530     0.1020    -3.7410 c3         1 3GC       0.117600
     15 SG2         -2.5380    -0.5600    -3.1160 sh         1 3GC      -0.489800
     16 O3           2.2080     0.9940    -2.4880 o          1 3GC      -0.724500
     17 H11          1.6540     0.8280     4.0820 hn         1 3GC       0.376500
     18 H22          1.3240     1.9820     2.9880 hn         1 3GC       0.376500
     19 HA1         -1.0520     1.5030     3.2590 h1         1 3GC       0.035700
     20 HB11         0.6490    -0.8490     2.3360 hc         1 3GC       0.055700
     21 HB12        -1.0740    -0.6660     2.0550 hc         1 3GC       0.055700
     22 HG11        -0.6570     1.4180     0.7500 hc         1 3GC       0.040700
     23 HG12         1.0650     1.2600     1.0190 hc         1 3GC       0.040700
     24 H2          -0.5180     1.2630    -1.4190 hn         1 3GC       0.288500
     25 HA2          0.2290    -1.2980    -2.6580 h1         1 3GC       0.080700
     26 HB21        -1.0460     1.1780    -3.9000 h1         1 3GC       0.056700
     27 HB22        -0.7200    -0.3630    -4.6950 h1         1 3GC       0.056700
     28 HG2         -3.1890    -0.5690    -4.2840 hs         1 3GC       0.159800
@<TRIPOS>BOND
     1     1     2 1   
     2     1    17 1   
     3     1    18 1   
     4     2     3 1   
     5     2     6 1   
     6     2    19 1   
     7     3     4 1   
     8     3     5 1   
     9     6     7 1   
    10     6    20 1   
    11     6    21 1   
    12     7     8 1   
    13     7    22 1   
    14     7    23 1   
    15     8     9 2   
    16     8    10 1   
    17    10    11 1   
    18    10    24 1   
    19    11    12 1   
    20    11    14 1   
    21    11    25 1   
    22    12    13 1   
    23    12    16 1   
    24    14    15 1   
    25    14    26 1   
    26    14    27 1   
    27    15    28 1   
@<TRIPOS>SUBSTRUCTURE
     1 3GC         1 TEMP              0 ****  ****    0 ROOT
