@<TRIPOS>MOLECULE
3GC
   28    27     1     0     0
SMALL
No Charge or Current Charge


@<TRIPOS>ATOM
      1 N1           0.8860     0.7620     4.0720 n8         1 3GC      -0.998200
      2 CA1         -0.3710     0.8190     3.2410 c3         1 3GC       0.021500
      3 C1          -1.7190     0.3850     3.9620 c          1 3GC       0.726000
      4 O11         -1.7960    -0.7440     4.4330 o          1 3GC      -0.743500
      5 O12         -2.6090     1.2180     4.0820 o          1 3GC      -0.743500
      6 CB1         -0.1730     0.0270     1.9190 c3         1 3GC      -0.091400
      7 CG1          0.9480     0.5770     0.9970 c3         1 3GC      -0.160400
      8 CD1          0.9890    -0.1710    -0.3430 c          1 3GC       0.611100
      9 OE1          1.4450    -1.3020    -0.4500 o          1 3GC      -0.629100
     10 N2           0.5200     0.5500    -1.4210 ns         1 3GC      -0.464900
     11 CA2          0.3970     0.0390    -2.8130 c3         1 3GC      -0.041300
     12 C2           0.9760     1.0610    -3.8290 c          1 3GC       0.714000
     13 O2           1.9290     0.7170    -4.5130 o          1 3GC      -0.724500
     14 CB2         -1.0600    -0.3200    -3.1830 c3         1 3GC       0.117600
     15 SG2         -1.8790    -1.5340    -2.0380 sh         1 3GC      -0.489800
     16 O3           0.4960     2.1860    -3.8640 o          1 3GC      -0.724500
     17 H11          1.0060    -0.1980     4.4180 hn         1 3GC       0.376500
     18 H22          1.6960     0.9080     3.4590 hn         1 3GC       0.376500
     19 HA1         -0.5060     1.8720     2.9590 h1         1 3GC       0.035700
     20 HB11         0.0220    -1.0290     2.1470 hc         1 3GC       0.055700
     21 HB12        -1.1190     0.0520     1.3620 hc         1 3GC       0.055700
     22 HG11         0.7590     1.6430     0.8230 hc         1 3GC       0.040700
     23 HG12         1.9160     0.4490     1.4950 hc         1 3GC       0.040700
     24 H2           0.1990     1.4920    -1.2300 hn         1 3GC       0.288500
     25 HA2          1.0000    -0.8730    -2.9060 h1         1 3GC       0.080700
     26 HB21        -1.6660     0.5960    -3.1890 h1         1 3GC       0.056700
     27 HB22        -1.0800    -0.7380    -4.1980 h1         1 3GC       0.056700
     28 HG2         -3.0700    -1.5620    -2.6820 hs         1 3GC       0.159800
@<TRIPOS>BOND
     1     1     2 1   
     2     1    17 1   
     3     1    18 1   
     4     2     3 1   
     5     2     6 1   
     6     2    19 1   
     7     3     4 1   
     8     3     5 1   
     9     6     7 1   
    10     6    20 1   
    11     6    21 1   
    12     7     8 1   
    13     7    22 1   
    14     7    23 1   
    15     8     9 2   
    16     8    10 1   
    17    10    11 1   
    18    10    24 1   
    19    11    12 1   
    20    11    14 1   
    21    11    25 1   
    22    12    13 1   
    23    12    16 1   
    24    14    15 1   
    25    14    26 1   
    26    14    27 1   
    27    15    28 1   
@<TRIPOS>SUBSTRUCTURE
     1 3GC         1 TEMP              0 ****  ****    0 ROOT
