@<TRIPOS>MOLECULE
3GD
  165   166     1     0     0
SMALL
No Charge or Current Charge


@<TRIPOS>ATOM
      1 C           -6.5090    -2.0250    -0.1160 c3         1 3GD       0.194500
      2 N           -4.0870    -1.7600     0.4970 ns         1 3GD      -0.507900
      3 O           -7.8140    -2.1060     0.4600 oh         1 3GD      -0.639000
      4 O1          -8.8070     9.9270    -1.8620 oh         1 3GD      -0.708000
      5 CA          -5.4770    -1.5390     0.9460 c3         1 3GD       0.079700
      6 CB          -5.6940    -0.0670     1.3780 c3         1 3GD       0.155600
      7 CAL         -8.0890     6.9020     0.0460 c6         1 3GD       0.376300
      8 CAM         -8.1400     8.3360     0.6660 c6         1 3GD       0.103300
      9 CAN         -9.4970     9.0060     0.2950 c6         1 3GD       0.139300
     10 CAO         -9.7230     8.9950    -1.2490 c6         1 3GD       0.144300
     11 CAP         -9.5390     7.5300    -1.7770 c6         1 3GD       0.180300
     12 CAQ         -9.6770     7.4260    -3.3320 c3         1 3GD       0.174600
     13 OAR         -7.9510     8.3310     2.1050 oh         1 3GD      -0.733000
     14 OAS         -9.5280    10.3530     0.8010 oh         1 3GD      -0.667000
     15 OAU         -8.2470     6.9950    -1.3820 os         1 3GD      -0.436000
     16 OAV         -9.5800     6.0710    -3.8220 oh         1 3GD      -0.715000
     17 CAW         -5.0970     3.0230    -0.7460 c6         1 3GD       0.102300
     18 CAX         -5.2430     4.5360    -0.4290 c6         1 3GD       0.173300
     19 CAY         -6.7040     4.8640     0.0270 c6         1 3GD       0.148300
     20 CAZ         -7.0810     3.9240     1.2270 c6         1 3GD       0.158300
     21 CBA         -8.5530     4.0770     1.7360 c3         1 3GD       0.166600
     22 CBB         -5.5210     2.2100     0.5150 c6         1 3GD       0.365300
     23 OBC         -5.4150     0.8000     0.2580 os         1 3GD      -0.459000
     24 OBE         -4.8300     5.2940    -1.5800 oh         1 3GD      -0.688000
     25 OBF         -6.8230     6.2780     0.3500 os         1 3GD      -0.444000
     26 OBG         -6.8820     2.5360     0.8460 os         1 3GD      -0.459000
     27 OBH         -8.9070     3.1230     2.7580 oh         1 3GD      -0.708000
     28 CBI          6.4770   -15.5690    -1.2220 c3         1 3GD      -0.088100
     29 CBJ          5.9530   -14.1970    -0.7540 c3         1 3GD      -0.075400
     30 CBK          4.4800   -13.9460    -1.1470 c3         1 3GD      -0.075400
     31 CBL          3.9530   -12.5740    -0.6720 c3         1 3GD      -0.074400
     32 CBM          2.4810   -12.3230    -1.0640 c3         1 3GD      -0.074400
     33 CBN          1.9510   -10.9560    -0.5770 c3         1 3GD      -0.074400
     34 CBO          0.4780   -10.7030    -0.9650 c3         1 3GD      -0.074400
     35 CBP         -0.0530    -9.3430    -0.4600 c3         1 3GD      -0.074400
     36 CBQ         -1.5280    -9.0880    -0.8410 c3         1 3GD      -0.074400
     37 CBR         -2.0570    -7.7340    -0.3190 c3         1 3GD      -0.074400
     38 CBS         -3.5340    -7.4740    -0.6880 c3         1 3GD      -0.074400
     39 CBT         -4.0550    -6.1240    -0.1490 c3         1 3GD      -0.073400
     40 CBU         -5.5270    -5.8420    -0.5130 c3         1 3GD      -0.045200
     41 CBW         -6.1720    -3.3930    -0.6750 c2         1 3GD      -0.266200
     42 CCC         -3.1540    -2.5230     1.1610 c          1 3GD       0.602100
     43 OCD         -3.3790    -3.0460     2.2420 o          1 3GD      -0.602100
     44 CCE         -1.8220    -2.6960     0.4250 c3         1 3GD      -0.157400
     45 CCF         -0.7010    -1.8510     1.0730 c3         1 3GD      -0.066400
     46 CCG          0.6600    -2.0060     0.3580 c3         1 3GD      -0.076400
     47 CCH          1.7790    -1.1550     0.9960 c3         1 3GD      -0.073400
     48 CCI          3.1390    -1.3130     0.2820 c3         1 3GD      -0.074400
     49 CCJ          4.2570    -0.4550     0.9140 c3         1 3GD      -0.073400
     50 CCK          5.6190    -0.6180     0.2040 c3         1 3GD      -0.074400
     51 CCL          6.7360     0.2430     0.8330 c3         1 3GD      -0.073400
     52 CCM          8.0990     0.0740     0.1270 c3         1 3GD      -0.074400
     53 CCN          9.2180     0.9340     0.7560 c3         1 3GD      -0.073400
     54 CCO         10.5830     0.7570     0.0550 c3         1 3GD      -0.074400
     55 CCP         11.7010     1.6140     0.6870 c3         1 3GD      -0.073400
     56 CCQ         13.0690     1.4320    -0.0080 c3         1 3GD      -0.074400
     57 CCR         14.1880     2.2860     0.6280 c3         1 3GD      -0.074400
     58 CCS         15.5580     2.0980    -0.0590 c3         1 3GD      -0.074400
     59 CCT         16.6760     2.9500     0.5810 c3         1 3GD      -0.074400
     60 CCU         18.0480     2.7610    -0.1030 c3         1 3GD      -0.074400
     61 CCV         19.1650     3.6130     0.5380 c3         1 3GD      -0.074400
     62 CCW         20.5370     3.4230    -0.1450 c3         1 3GD      -0.076400
     63 CCX         21.6540     4.2780     0.4920 c3         1 3GD      -0.075400
     64 CCY         23.0230     4.0870    -0.1890 c3         1 3GD      -0.088100
     65 H           -6.5070    -1.3040    -0.9470 h1         1 3GD       0.089700
     66 HN          -3.8050    -1.3650    -0.3910 hn         1 3GD       0.314500
     67 HO          -8.3110    -2.7500    -0.0890 ho         1 3GD       0.440000
     68 HO1         -8.7720    10.6830    -1.2260 ho         1 3GD       0.522000
     69 HA          -5.6450    -2.1510     1.8420 h1         1 3GD       0.088700
     70 HB          -6.7270     0.0630     1.7280 h1         1 3GD       0.051700
     71 HBA         -5.0230     0.1600     2.2170 h1         1 3GD       0.051700
     72 HAL         -8.9120     6.3040     0.4590 h2         1 3GD       0.024700
     73 HAM         -7.3320     8.9150     0.1920 h1         1 3GD       0.079700
     74 HAN        -10.3050     8.4200     0.7600 h1         1 3GD       0.047700
     75 HAO        -10.7590     9.3070    -1.4480 h1         1 3GD       0.050700
     76 HAP        -10.3250     6.8990    -1.3360 h1         1 3GD       0.046700
     77 HAQ        -10.6460     7.8580    -3.6170 h1         1 3GD       0.038700
     78 HAQA        -8.8970     8.0480    -3.7910 h1         1 3GD       0.038700
     79 HOAR        -7.1120     7.8360     2.2740 ho         1 3GD       0.524000
     80 HOAS        -9.1400    10.2880     1.7050 ho         1 3GD       0.469000
     81 HOAV        -9.5880     6.1210    -4.8070 ho         1 3GD       0.506000
     82 HAW         -5.8070     2.7710    -1.5490 h1         1 3GD       0.067700
     83 HAX         -4.5720     4.7670     0.4130 h1         1 3GD       0.048700
     84 HAY         -7.3710     4.6340    -0.8170 h1         1 3GD       0.077700
     85 HAZ         -6.4160     4.1490     2.0740 h1         1 3GD       0.055700
     86 HBAA        -8.6730     5.0920     2.1360 h1         1 3GD       0.033200
     87 HBAB        -9.2280     3.9760     0.8750 h1         1 3GD       0.033200
     88 HBB         -4.8630     2.4720     1.3590 h2         1 3GD       0.035700
     89 HOBD        -3.6670     1.7390    -1.1630 ho         1 3GD       0.517000
     90 HOBE        -4.0840     4.7650    -1.9530 ho         1 3GD       0.517000
     91 HOBH        -9.8660     3.2420     2.9480 ho         1 3GD       0.505000
     92 HBI          7.5230   -15.7010    -0.9210 hc         1 3GD       0.031367
     93 HBIA         5.8870   -16.3810    -0.7800 hc         1 3GD       0.031367
     94 HBIB         6.4210   -15.6540    -2.3140 hc         1 3GD       0.031367
     95 HBJ          6.0550   -14.1300     0.3360 hc         1 3GD       0.036700
     96 HBJA         6.5840   -13.4090    -1.1840 hc         1 3GD       0.036700
     97 HBK          4.3820   -14.0120    -2.2380 hc         1 3GD       0.036700
     98 HBKA         3.8540   -14.7400    -0.7200 hc         1 3GD       0.036700
     99 HBL          4.0510   -12.5100     0.4190 hc         1 3GD       0.036700
    100 HBLA         4.5800   -11.7810    -1.0970 hc         1 3GD       0.036700
    101 HBM          2.3840   -12.3780    -2.1560 hc         1 3GD       0.036700
    102 HBMA         1.8550   -13.1210    -0.6460 hc         1 3GD       0.036700
    103 HBN          2.0500   -10.9010     0.5150 hc         1 3GD       0.037200
    104 HBNA         2.5760   -10.1570    -0.9950 hc         1 3GD       0.037200
    105 HBO          0.3800   -10.7460    -2.0570 hc         1 3GD       0.036700
    106 HBOA        -0.1460   -11.5070    -0.5550 hc         1 3GD       0.036700
    107 HBP          0.0490    -9.3010     0.6310 hc         1 3GD       0.037700
    108 HBPA         0.5690    -8.5380    -0.8720 hc         1 3GD       0.037700
    109 HBQ         -1.6300    -9.1190    -1.9330 hc         1 3GD       0.037200
    110 HBQA        -2.1490    -9.8970    -0.4370 hc         1 3GD       0.037200
    111 HBR         -1.9490    -7.7040     0.7730 hc         1 3GD       0.038700
    112 HBRA        -1.4370    -6.9250    -0.7240 hc         1 3GD       0.038700
    113 HBS         -3.6420    -7.4940    -1.7800 hc         1 3GD       0.037200
    114 HBSA        -4.1550    -8.2860    -0.2900 hc         1 3GD       0.037200
    115 HBT         -3.9450    -6.1060     0.9420 hc         1 3GD       0.042200
    116 HBTA        -3.4300    -5.3140    -0.5460 hc         1 3GD       0.042200
    117 HBU         -5.6320    -5.8540    -1.6050 hc         1 3GD       0.045200
    118 HBV         -6.1100    -4.5010     1.1310 ha         1 3GD       0.173000
    119 HBW         -6.0170    -3.4020    -1.7550 ha         1 3GD       0.173000
    120 HCE         -1.5310    -3.7520     0.4720 hc         1 3GD       0.054200
    121 HCEA        -1.9280    -2.3860    -0.6220 hc         1 3GD       0.054200
    122 HCF         -0.9960    -0.7930     1.0630 hc         1 3GD       0.056200
    123 HCFA        -0.5900    -2.1420     2.1260 hc         1 3GD       0.056200
    124 HCG          0.9560    -3.0630     0.3750 hc         1 3GD       0.035700
    125 HCGA         0.5480    -1.7220    -0.6960 hc         1 3GD       0.035700
    126 HCH          1.4830    -0.0990     0.9770 hc         1 3GD       0.040700
    127 HCHA         1.8910    -1.4380     2.0510 hc         1 3GD       0.040700
    128 HCI          3.4380    -2.3690     0.3070 hc         1 3GD       0.036700
    129 HCIA         3.0270    -1.0370    -0.7740 hc         1 3GD       0.036700
    130 HCJ          3.9600     0.6010     0.8860 hc         1 3GD       0.038200
    131 HCK          5.9170    -1.6730     0.2350 hc         1 3GD       0.036700
    132 HCL          6.4400     1.2990     0.7970 hc         1 3GD       0.037700
    133 HCM          8.3940    -0.9820     0.1630 hc         1 3GD       0.036700
    134 HCN          8.9250     1.9910     0.7160 hc         1 3GD       0.037700
    135 HCNA         9.3210     0.6700     1.8160 hc         1 3GD       0.037700
    136 HCO         10.8730    -0.3000     0.0950 hc         1 3GD       0.036700
    137 HCOA        10.4800     1.0230    -1.0050 hc         1 3GD       0.036700
    138 HCP         11.4140     2.6720     0.6430 hc         1 3GD       0.037700
    139 HCPA        11.7990     1.3530     1.7480 hc         1 3GD       0.037700
    140 HCQ         13.3560     0.3730     0.0350 hc         1 3GD       0.036700
    141 HCQA        12.9730     1.6950    -1.0680 hc         1 3GD       0.036700
    142 HCR         13.9030     3.3450     0.5810 hc         1 3GD       0.037200
    143 HCRA        14.2800     2.0260     1.6900 hc         1 3GD       0.037200
    144 HCS         15.8410     1.0390    -0.0140 hc         1 3GD       0.036700
    145 HCSA        15.4680     2.3610    -1.1210 hc         1 3GD       0.036700
    146 HCT         16.3930     4.0090     0.5340 hc         1 3GD       0.037200
    147 HCTA        16.7640     2.6880     1.6430 hc         1 3GD       0.037200
    148 HCU         18.3310     1.7010    -0.0550 hc         1 3GD       0.036700
    149 HCUA        17.9600     3.0220    -1.1650 hc         1 3GD       0.036700
    150 HCV         18.8830     4.6720     0.4910 hc         1 3GD       0.036700
    151 HCVA        19.2530     3.3520     1.6010 hc         1 3GD       0.036700
    152 HCW         20.8210     2.3640    -0.0950 hc         1 3GD       0.036700
    153 HCWA        20.4490     3.6810    -1.2080 hc         1 3GD       0.036700
    154 HCX         21.3750     5.3380     0.4410 hc         1 3GD       0.036700
    155 HCXA        21.7460     4.0220     1.5550 hc         1 3GD       0.036700
    156 HCY         23.3480     3.0420    -0.1220 hc         1 3GD       0.031367
    157 HCYA        22.9720     4.3680    -1.2480 hc         1 3GD       0.031367
    158 HCYB        23.7810     4.7140     0.2960 hc         1 3GD       0.031367
    159 HCJA         4.3670    -0.7290     1.9710 hc         1 3GD       0.038200
    160 HCKA         5.5080    -0.3470    -0.8540 hc         1 3GD       0.036700
    161 HCLA         6.8440    -0.0230     1.8920 hc         1 3GD       0.037700
    162 HCMA         7.9920     0.3420    -0.9320 hc         1 3GD       0.036700
    163 HBUA        -6.1640    -6.6480    -0.1270 hc         1 3GD       0.045200
    164 OBD         -3.7470     2.7230    -1.1800 oh         1 3GD      -0.721000
    165 CBV         -5.9840    -4.5120     0.0460 c2         1 3GD      -0.196200
@<TRIPOS>BOND
     1     1     3 1   
     2     1     5 1   
     3     1    41 1   
     4     1    65 1   
     5     2     5 1   
     6     2    42 1   
     7     2    66 1   
     8     3    67 1   
     9     4    10 1   
    10     4    68 1   
    11     5     6 1   
    12     5    69 1   
    13     6    23 1   
    14     6    70 1   
    15     6    71 1   
    16     7     8 1   
    17     7    15 1   
    18     7    25 1   
    19     7    72 1   
    20     8     9 1   
    21     8    13 1   
    22     8    73 1   
    23     9    10 1   
    24     9    14 1   
    25     9    74 1   
    26    10    11 1   
    27    10    75 1   
    28    11    12 1   
    29    11    15 1   
    30    11    76 1   
    31    12    16 1   
    32    12    77 1   
    33    12    78 1   
    34    13    79 1   
    35    14    80 1   
    36    16    81 1   
    37    17    18 1   
    38    17    22 1   
    39    17    82 1   
    40    17   164 1   
    41    18    19 1   
    42    18    24 1   
    43    18    83 1   
    44    19    20 1   
    45    19    25 1   
    46    19    84 1   
    47    20    21 1   
    48    20    26 1   
    49    20    85 1   
    50    21    27 1   
    51    21    86 1   
    52    21    87 1   
    53    22    23 1   
    54    22    26 1   
    55    22    88 1   
    56    24    90 1   
    57    27    91 1   
    58    28    29 1   
    59    28    92 1   
    60    28    93 1   
    61    28    94 1   
    62    29    30 1   
    63    29    95 1   
    64    29    96 1   
    65    30    31 1   
    66    30    97 1   
    67    30    98 1   
    68    31    32 1   
    69    31    99 1   
    70    31   100 1   
    71    32    33 1   
    72    32   101 1   
    73    32   102 1   
    74    33    34 1   
    75    33   103 1   
    76    33   104 1   
    77    34    35 1   
    78    34   105 1   
    79    34   106 1   
    80    35    36 1   
    81    35   107 1   
    82    35   108 1   
    83    36    37 1   
    84    36   109 1   
    85    36   110 1   
    86    37    38 1   
    87    37   111 1   
    88    37   112 1   
    89    38    39 1   
    90    38   113 1   
    91    38   114 1   
    92    39    40 1   
    93    39   115 1   
    94    39   116 1   
    95    40   117 1   
    96    40   163 1   
    97    40   165 1   
    98    41   119 1   
    99    41   165 2   
   100    42    43 2   
   101    42    44 1   
   102    44    45 1   
   103    44   120 1   
   104    44   121 1   
   105    45    46 1   
   106    45   122 1   
   107    45   123 1   
   108    46    47 1   
   109    46   124 1   
   110    46   125 1   
   111    47    48 1   
   112    47   126 1   
   113    47   127 1   
   114    48    49 1   
   115    48   128 1   
   116    48   129 1   
   117    49    50 1   
   118    49   130 1   
   119    49   159 1   
   120    50    51 1   
   121    50   131 1   
   122    50   160 1   
   123    51    52 1   
   124    51   132 1   
   125    51   161 1   
   126    52    53 1   
   127    52   133 1   
   128    52   162 1   
   129    53    54 1   
   130    53   134 1   
   131    53   135 1   
   132    54    55 1   
   133    54   136 1   
   134    54   137 1   
   135    55    56 1   
   136    55   138 1   
   137    55   139 1   
   138    56    57 1   
   139    56   140 1   
   140    56   141 1   
   141    57    58 1   
   142    57   142 1   
   143    57   143 1   
   144    58    59 1   
   145    58   144 1   
   146    58   145 1   
   147    59    60 1   
   148    59   146 1   
   149    59   147 1   
   150    60    61 1   
   151    60   148 1   
   152    60   149 1   
   153    61    62 1   
   154    61   150 1   
   155    61   151 1   
   156    62    63 1   
   157    62   152 1   
   158    62   153 1   
   159    63    64 1   
   160    63   154 1   
   161    63   155 1   
   162    64   156 1   
   163    64   157 1   
   164    64   158 1   
   165    89   164 1   
   166   118   165 1   
@<TRIPOS>SUBSTRUCTURE
     1 3GD         1 TEMP              0 ****  ****    0 ROOT
