@<TRIPOS>MOLECULE
3GD
  165   166     1     0     0
SMALL
abcg2


@<TRIPOS>ATOM
      1 C           -5.2720    -1.5930    -1.0970 c3         1 3GD       0.194500
      2 N           -3.3630    -0.3550    -0.1720 ns         1 3GD      -0.507900
      3 O           -6.5530    -2.0880    -0.8100 oh         1 3GD      -0.639000
      4 O1         -11.0140     9.3090     0.2960 oh         1 3GD      -0.708000
      5 CA          -4.6380    -0.9480     0.1600 c3         1 3GD       0.079700
      6 CB          -5.5420     0.0710     0.8320 c3         1 3GD       0.155600
      7 CAL        -10.1210     5.9140     0.3910 c6         1 3GD       0.376300
      8 CAM        -10.9790     6.5660     1.4760 c6         1 3GD       0.103300
      9 CAN        -12.1730     7.2420     0.8150 c6         1 3GD       0.139300
     10 CAO        -11.7000     8.2150    -0.2610 c6         1 3GD       0.144300
     11 CAP        -10.7710     7.4810    -1.2220 c6         1 3GD       0.180300
     12 CAQ        -10.2050     8.4030    -2.2810 c3         1 3GD       0.174600
     13 OAR        -11.4800     5.6200     2.3910 oh         1 3GD      -0.733000
     14 OAS        -12.9530     7.9640     1.7360 oh         1 3GD      -0.667000
     15 OAU         -9.6970     6.8770    -0.5310 os         1 3GD      -0.436000
     16 OAV         -9.5730     7.6270    -3.2700 oh         1 3GD      -0.715000
     17 CAW         -6.0650     3.4910    -0.3220 c6         1 3GD       0.102300
     18 CAX         -6.8570     4.6680     0.2400 c6         1 3GD       0.173300
     19 CAY         -8.3410     4.3240     0.3030 c6         1 3GD       0.148300
     20 CAZ         -8.5360     2.9950     1.0510 c6         1 3GD       0.158300
     21 CBA         -9.9760     2.5270     1.0360 c3         1 3GD       0.166600
     22 CBB         -6.3810     2.2460     0.4970 c6         1 3GD       0.365300
     23 OBC         -5.7120     1.1710    -0.0440 os         1 3GD      -0.459000
     24 OBE         -6.6940     5.8220    -0.5370 oh         1 3GD      -0.688000
     25 OBF         -9.0110     5.3590     0.9980 os         1 3GD      -0.444000
     26 OBG         -7.7580     1.9880     0.4410 os         1 3GD      -0.459000
     27 OBH        -10.0680     1.3360     1.7790 oh         1 3GD      -0.708000
     28 CBI          5.1170   -16.7370     1.4260 c3         1 3GD      -0.088100
     29 CBJ          3.8130   -15.9980     1.6880 c3         1 3GD      -0.075400
     30 CBK          3.5830   -14.8410     0.7220 c3         1 3GD      -0.075400
     31 CBL          2.2800   -14.0940     0.9750 c3         1 3GD      -0.074400
     32 CBM          2.0560   -12.9330     0.0130 c3         1 3GD      -0.074400
     33 CBN          0.7640   -12.1710     0.2790 c3         1 3GD      -0.074400
     34 CBO          0.5460   -11.0050    -0.6790 c3         1 3GD      -0.074400
     35 CBP         -0.7170   -10.2070    -0.3790 c3         1 3GD      -0.074400
     36 CBQ         -0.9320    -9.0390    -1.3350 c3         1 3GD      -0.074400
     37 CBR         -2.1290    -8.1720    -0.9650 c3         1 3GD      -0.074400
     38 CBS         -2.3520    -7.0100    -1.9260 c3         1 3GD      -0.074400
     39 CBT         -3.4390    -6.0500    -1.4620 c3         1 3GD      -0.073400
     40 CBU         -3.6740    -4.9010    -2.4450 c3         1 3GD      -0.045200
     41 CBW         -4.3480    -2.6260    -1.6770 c2         1 3GD      -0.266200
     42 CCC         -2.1780    -0.7430     0.3430 c          1 3GD       0.602100
     43 OCD         -2.0790    -1.5700     1.2370 o          1 3GD      -0.602100
     44 CCE         -0.9730    -0.1090    -0.3180 c3         1 3GD      -0.157400
     45 CCF          0.2430     0.0220     0.5870 c3         1 3GD      -0.066400
     46 CCG          1.4860     0.4260    -0.1960 c3         1 3GD      -0.076400
     47 CCH          2.7290     0.5700     0.6720 c3         1 3GD      -0.073400
     48 CCI          3.9890     0.8400    -0.1410 c3         1 3GD      -0.074400
     49 CCJ          5.2460     0.9850     0.7070 c3         1 3GD      -0.073400
     50 CCK          6.5050     1.1800    -0.1270 c3         1 3GD      -0.074400
     51 CCL          7.7730     1.3270     0.7040 c3         1 3GD      -0.073400
     52 CCM          9.0280     1.4690    -0.1480 c3         1 3GD      -0.074400
     53 CCN         10.3080     1.6170     0.6660 c3         1 3GD      -0.073400
     54 CCO         11.5550     1.7160    -0.2020 c3         1 3GD      -0.074400
     55 CCP         12.8450     1.8630     0.5950 c3         1 3GD      -0.073400
     56 CCQ         14.0850     1.9320    -0.2880 c3         1 3GD      -0.074400
     57 CCR         15.3840     2.0770     0.4950 c3         1 3GD      -0.074400
     58 CCS         16.6170     2.1240    -0.3990 c3         1 3GD      -0.074400
     59 CCT         17.9230     2.2630     0.3730 c3         1 3GD      -0.074400
     60 CCU         19.1500     2.2970    -0.5290 c3         1 3GD      -0.074400
     61 CCV         20.4610     2.4270     0.2350 c3         1 3GD      -0.074400
     62 CCW         21.6840     2.4530    -0.6740 c3         1 3GD      -0.076400
     63 CCX         23.0010     2.5710     0.0840 c3         1 3GD      -0.075400
     64 CCY         24.2110     2.5920    -0.8410 c3         1 3GD      -0.088100
     65 H           -5.4200    -0.8040    -1.8450 h1         1 3GD       0.089700
     66 HN          -3.3570     0.3460    -0.8960 hn         1 3GD       0.314500
     67 HO          -6.4670    -2.8100    -0.1760 ho         1 3GD       0.440000
     68 HO1        -11.5630     9.6750     0.9980 ho         1 3GD       0.522000
     69 HA          -4.4530    -1.7390     0.8900 h1         1 3GD       0.088700
     70 HB          -6.5010    -0.3840     1.0920 h1         1 3GD       0.051700
     71 HBA         -5.0670     0.4020     1.7640 h1         1 3GD       0.051700
     72 HAL        -10.7170     5.1400    -0.1300 h2         1 3GD       0.024700
     73 HAM        -10.3700     7.3260     1.9840 h1         1 3GD       0.079700
     74 HAN        -12.7770     6.4650     0.3190 h1         1 3GD       0.047700
     75 HAO        -12.5790     8.5480    -0.8340 h1         1 3GD       0.050700
     76 HAP        -11.3790     6.7100    -1.7240 h1         1 3GD       0.046700
     77 HAQ        -11.0360     8.9880    -2.6970 h1         1 3GD       0.038700
     78 HAQA        -9.5120     9.1140    -1.8150 h1         1 3GD       0.038700
     79 HOAR       -10.7760     5.3800     3.0020 ho         1 3GD       0.524000
     80 HOAS       -13.1240     7.4010     2.4990 ho         1 3GD       0.469000
     81 HOAV        -9.1160     8.2240    -3.8690 ho         1 3GD       0.506000
     82 HAW         -6.3790     3.3120    -1.3620 h1         1 3GD       0.067700
     83 HAX         -6.5110     4.8350     1.2750 h1         1 3GD       0.048700
     84 HAY         -8.7270     4.2230    -0.7200 h1         1 3GD       0.077700
     85 HAZ         -8.2170     3.1390     2.0960 h1         1 3GD       0.055700
     86 HBAA       -10.6080     3.3120     1.4630 h1         1 3GD       0.033200
     87 HBAB       -10.2950     2.3860    -0.0070 h1         1 3GD       0.033200
     88 HBB         -6.0720     2.4110     1.5470 h2         1 3GD       0.035700
     89 HOBD        -4.1990     3.1890    -0.7570 ho         1 3GD       0.517000
     90 HOBE        -5.7560     6.0380    -0.5500 ho         1 3GD       0.517000
     91 HOBH       -10.9950     1.0850     1.8220 ho         1 3GD       0.505000
     92 HBI          5.2650   -17.5560     2.1320 hc         1 3GD       0.031367
     93 HBIA         5.1350   -17.1610     0.4200 hc         1 3GD       0.031367
     94 HBIB         5.9750   -16.0670     1.5140 hc         1 3GD       0.031367
     95 HBJ          2.9740   -16.6970     1.6190 hc         1 3GD       0.036700
     96 HBJA         3.8060   -15.6170     2.7140 hc         1 3GD       0.036700
     97 HBK          4.4230   -14.1420     0.7930 hc         1 3GD       0.036700
     98 HBKA         3.5920   -15.2210    -0.3060 hc         1 3GD       0.036700
     99 HBL          1.4390   -14.7930     0.9020 hc         1 3GD       0.036700
    100 HBLA         2.2720   -13.7180     2.0040 hc         1 3GD       0.036700
    101 HBM          2.9040   -12.2420     0.0790 hc         1 3GD       0.036700
    102 HBMA         2.0520   -13.3100    -1.0160 hc         1 3GD       0.036700
    103 HBN         -0.0860   -12.8580     0.2140 hc         1 3GD       0.037200
    104 HBNA         0.7710   -11.7950     1.3080 hc         1 3GD       0.037200
    105 HBO          1.4130   -10.3370    -0.6360 hc         1 3GD       0.036700
    106 HBOA         0.5060   -11.3830    -1.7070 hc         1 3GD       0.036700
    107 HBP         -1.5880   -10.8700    -0.4140 hc         1 3GD       0.037700
    108 HBPA        -0.6660    -9.8280     0.6480 hc         1 3GD       0.037700
    109 HBQ         -0.0320    -8.4150    -1.3500 hc         1 3GD       0.037200
    110 HBQA        -1.0540    -9.4210    -2.3540 hc         1 3GD       0.037200
    111 HBR         -3.0340    -8.7890    -0.9240 hc         1 3GD       0.038700
    112 HBRA        -1.9850    -7.7790     0.0480 hc         1 3GD       0.038700
    113 HBS         -1.4150    -6.4540    -2.0440 hc         1 3GD       0.037200
    114 HBSA        -2.6010    -7.3990    -2.9190 hc         1 3GD       0.037200
    115 HBT         -4.3760    -6.5960    -1.3060 hc         1 3GD       0.042200
    116 HBTA        -3.1610    -5.6360    -0.4870 hc         1 3GD       0.042200
    117 HBU         -2.7210    -4.4110    -2.6660 hc         1 3GD       0.045200
    118 HBV         -5.6530    -4.2710    -1.7210 ha         1 3GD       0.173000
    119 HBW         -3.3450    -2.2780    -1.9060 ha         1 3GD       0.173000
    120 HCE         -0.7190    -0.7450    -1.1750 hc         1 3GD       0.054200
    121 HCEA        -1.2380     0.8640    -0.7410 hc         1 3GD       0.054200
    122 HCF          0.0430     0.7560     1.3730 hc         1 3GD       0.056200
    123 HCFA         0.4290    -0.9300     1.0900 hc         1 3GD       0.056200
    124 HCG          1.6730    -0.3260    -0.9710 hc         1 3GD       0.035700
    125 HCGA         1.3020     1.3670    -0.7260 hc         1 3GD       0.035700
    126 HCH          2.5800     1.3770     1.3980 hc         1 3GD       0.040700
    127 HCHA         2.8690    -0.3440     1.2600 hc         1 3GD       0.040700
    128 HCI          4.1320     0.0240    -0.8590 hc         1 3GD       0.036700
    129 HCIA         3.8490     1.7460    -0.7410 hc         1 3GD       0.036700
    130 HCJ          5.1260     1.8300     1.3950 hc         1 3GD       0.038200
    131 HCK          6.6190     0.3300    -0.8090 hc         1 3GD       0.036700
    132 HCL          7.6780     2.1960     1.3650 hc         1 3GD       0.037700
    133 HCM          9.1180     0.5950    -0.8040 hc         1 3GD       0.036700
    134 HCN         10.2340     2.5040     1.3040 hc         1 3GD       0.037700
    135 HCNA        10.4070     0.7630     1.3470 hc         1 3GD       0.037700
    136 HCO         11.6230     0.8250    -0.8380 hc         1 3GD       0.036700
    137 HCOA        11.4530     2.5660    -0.8870 hc         1 3GD       0.036700
    138 HCP         12.7890     2.7640     1.2170 hc         1 3GD       0.037700
    139 HCPA        12.9420     1.0220     1.2900 hc         1 3GD       0.037700
    140 HCQ         14.1360     1.0300    -0.9090 hc         1 3GD       0.036700
    141 HCQA        13.9860     2.7720    -0.9850 hc         1 3GD       0.036700
    142 HCR         15.3420     2.9850     1.1070 hc         1 3GD       0.037200
    143 HCRA        15.4790     1.2420     1.1990 hc         1 3GD       0.037200
    144 HCS         16.6530     1.2160    -1.0110 hc         1 3GD       0.036700
    145 HCSA        16.5210     2.9580    -1.1030 hc         1 3GD       0.036700
    146 HCT         17.8920     3.1750     0.9810 hc         1 3GD       0.037200
    147 HCTA        18.0170     1.4320     1.0810 hc         1 3GD       0.037200
    148 HCU         19.1750     1.3870    -1.1390 hc         1 3GD       0.036700
    149 HCUA        19.0560     3.1300    -1.2350 hc         1 3GD       0.036700
    150 HCV         20.4410     3.3390     0.8430 hc         1 3GD       0.036700
    151 HCVA        20.5540     1.5950     0.9420 hc         1 3GD       0.036700
    152 HCW         21.6990     1.5440    -1.2860 hc         1 3GD       0.036700
    153 HCWA        21.5950     3.2890    -1.3770 hc         1 3GD       0.036700
    154 HCX         22.9880     3.4790     0.6950 hc         1 3GD       0.036700
    155 HCXA        23.0900     1.7350     0.7850 hc         1 3GD       0.036700
    156 HCY         24.2600     1.6830    -1.4430 hc         1 3GD       0.031367
    157 HCYA        24.1650     3.4400    -1.5270 hc         1 3GD       0.031367
    158 HCYB        25.1450     2.6690    -0.2820 hc         1 3GD       0.031367
    159 HCJA         5.3640     0.0970     1.3380 hc         1 3GD       0.038200
    160 HCKA         6.3860     2.0630    -0.7650 hc         1 3GD       0.036700
    161 HCLA         7.8800     0.4580     1.3630 hc         1 3GD       0.037700
    162 HCMA         8.9200     2.3330    -0.8120 hc         1 3GD       0.036700
    163 HBUA        -4.0390    -5.3150    -3.3910 hc         1 3GD       0.045200
    164 OBD         -4.7030     3.8310    -0.2480 oh         1 3GD      -0.721000
    165 CBV         -4.6510    -3.8970    -1.9210 c2         1 3GD      -0.196200
@<TRIPOS>BOND
     1     1     3 1   
     2     1     5 1   
     3     1    41 1   
     4     1    65 1   
     5     2     5 1   
     6     2    42 1   
     7     2    66 1   
     8     3    67 1   
     9     4    10 1   
    10     4    68 1   
    11     5     6 1   
    12     5    69 1   
    13     6    23 1   
    14     6    70 1   
    15     6    71 1   
    16     7     8 1   
    17     7    15 1   
    18     7    25 1   
    19     7    72 1   
    20     8     9 1   
    21     8    13 1   
    22     8    73 1   
    23     9    10 1   
    24     9    14 1   
    25     9    74 1   
    26    10    11 1   
    27    10    75 1   
    28    11    12 1   
    29    11    15 1   
    30    11    76 1   
    31    12    16 1   
    32    12    77 1   
    33    12    78 1   
    34    13    79 1   
    35    14    80 1   
    36    16    81 1   
    37    17    18 1   
    38    17    22 1   
    39    17    82 1   
    40    17   164 1   
    41    18    19 1   
    42    18    24 1   
    43    18    83 1   
    44    19    20 1   
    45    19    25 1   
    46    19    84 1   
    47    20    21 1   
    48    20    26 1   
    49    20    85 1   
    50    21    27 1   
    51    21    86 1   
    52    21    87 1   
    53    22    23 1   
    54    22    26 1   
    55    22    88 1   
    56    24    90 1   
    57    27    91 1   
    58    28    29 1   
    59    28    92 1   
    60    28    93 1   
    61    28    94 1   
    62    29    30 1   
    63    29    95 1   
    64    29    96 1   
    65    30    31 1   
    66    30    97 1   
    67    30    98 1   
    68    31    32 1   
    69    31    99 1   
    70    31   100 1   
    71    32    33 1   
    72    32   101 1   
    73    32   102 1   
    74    33    34 1   
    75    33   103 1   
    76    33   104 1   
    77    34    35 1   
    78    34   105 1   
    79    34   106 1   
    80    35    36 1   
    81    35   107 1   
    82    35   108 1   
    83    36    37 1   
    84    36   109 1   
    85    36   110 1   
    86    37    38 1   
    87    37   111 1   
    88    37   112 1   
    89    38    39 1   
    90    38   113 1   
    91    38   114 1   
    92    39    40 1   
    93    39   115 1   
    94    39   116 1   
    95    40   117 1   
    96    40   163 1   
    97    40   165 1   
    98    41   119 1   
    99    41   165 2   
   100    42    43 2   
   101    42    44 1   
   102    44    45 1   
   103    44   120 1   
   104    44   121 1   
   105    45    46 1   
   106    45   122 1   
   107    45   123 1   
   108    46    47 1   
   109    46   124 1   
   110    46   125 1   
   111    47    48 1   
   112    47   126 1   
   113    47   127 1   
   114    48    49 1   
   115    48   128 1   
   116    48   129 1   
   117    49    50 1   
   118    49   130 1   
   119    49   159 1   
   120    50    51 1   
   121    50   131 1   
   122    50   160 1   
   123    51    52 1   
   124    51   132 1   
   125    51   161 1   
   126    52    53 1   
   127    52   133 1   
   128    52   162 1   
   129    53    54 1   
   130    53   134 1   
   131    53   135 1   
   132    54    55 1   
   133    54   136 1   
   134    54   137 1   
   135    55    56 1   
   136    55   138 1   
   137    55   139 1   
   138    56    57 1   
   139    56   140 1   
   140    56   141 1   
   141    57    58 1   
   142    57   142 1   
   143    57   143 1   
   144    58    59 1   
   145    58   144 1   
   146    58   145 1   
   147    59    60 1   
   148    59   146 1   
   149    59   147 1   
   150    60    61 1   
   151    60   148 1   
   152    60   149 1   
   153    61    62 1   
   154    61   150 1   
   155    61   151 1   
   156    62    63 1   
   157    62   152 1   
   158    62   153 1   
   159    63    64 1   
   160    63   154 1   
   161    63   155 1   
   162    64   156 1   
   163    64   157 1   
   164    64   158 1   
   165    89   164 1   
   166   118   165 1   
@<TRIPOS>SUBSTRUCTURE
     1 3GD         1 TEMP              0 ****  ****    0 ROOT
