@<TRIPOS>MOLECULE
3GF
   52    56     1     0     0
SMALL
bcc


@<TRIPOS>ATOM
      1 C29          7.8870    -0.8380     0.3110 c3         1 3GF       0.151100
      2 N26          6.5470    -0.7610    -0.2260 n3         1 3GF      -0.711600
      3 C27          5.7140    -1.8460     0.2460 c6         1 3GF       0.150300
      4 C28          4.3500    -1.8090    -0.4130 c6         1 3GF       0.218300
      5 N18          3.7130    -0.5160    -0.2150 nh         1 3GF      -0.771300
      6 C24          4.5510     0.6150    -0.5650 c6         1 3GF       0.218300
      7 C25          5.9150     0.5000     0.0900 c6         1 3GF       0.150300
      8 C14          2.3580    -0.4180    -0.1830 ca         1 3GF       0.630200
      9 C15          1.6720     0.8080    -0.3290 ca         1 3GF      -0.260300
     10 C16          0.3060     0.8150    -0.2180 cp         1 3GF      -0.067300
     11 C17         -0.4360     2.0690    -0.4540 cp         1 3GF      -0.008000
     12 C19         -1.4750     2.1290    -1.3780 ca         1 3GF      -0.229300
     13 C20         -2.1150     3.3400    -1.5830 ca         1 3GF       0.399200
     14 N21         -1.7970     4.4590    -0.9400 nb         1 3GF      -0.659000
     15 C22         -0.8050     4.3980    -0.0610 ca         1 3GF       0.399200
     16 C23         -0.0950     3.2390     0.2140 ca         1 3GF      -0.229300
     17 C11         -0.3320    -0.4150     0.0560 cq         1 3GF       0.365800
     18 N12          0.3700    -1.5310     0.1210 nb         1 3GF      -0.273000
     19 N13          1.6680    -1.5490    -0.0140 nb         1 3GF      -0.401000
     20 C8          -1.7850    -0.5510     0.2790 cq         1 3GF      -0.138500
     21 C7          -2.4820    -1.5770    -0.3090 ca         1 3GF      -0.080000
     22 C6          -3.8670    -1.7450    -0.0880 ca         1 3GF      -0.043000
     23 C5          -4.5970    -2.7920    -0.6980 ca         1 3GF      -0.110000
     24 C4          -5.9390    -2.9320    -0.4670 ca         1 3GF      -0.129000
     25 C3          -6.6130    -2.0320     0.3850 ca         1 3GF      -0.121000
     26 C2          -5.9320    -1.0100     0.9880 ca         1 3GF      -0.119000
     27 C1          -4.5460    -0.8390     0.7670 ca         1 3GF      -0.030000
     28 C10         -3.8070     0.2040     1.3740 ca         1 3GF      -0.121000
     29 C9          -2.4700     0.3460     1.1370 ca         1 3GF      -0.109000
     30 H1           8.3530    -1.7790     0.0180 h1         1 3GF       0.033367
     31 H2           8.4950    -0.0240    -0.0880 h1         1 3GF       0.033367
     32 H3           7.9200    -0.7730     1.4100 h1         1 3GF       0.033367
     33 H5           6.1850    -2.8000    -0.0030 h1         1 3GF       0.042450
     34 H6           5.5910    -1.8190     1.3430 h1         1 3GF       0.042450
     35 H7           4.4560    -2.0100    -1.4870 h1         1 3GF       0.057450
     36 H8           3.7250    -2.5900     0.0080 h1         1 3GF       0.057450
     37 H9           4.6640     0.6880    -1.6540 h1         1 3GF       0.057450
     38 H10          4.1040     1.5430    -0.2170 h1         1 3GF       0.057450
     39 H11          5.8020     0.6380     1.1790 h1         1 3GF       0.042450
     40 H12          6.5370     1.3210    -0.2760 h1         1 3GF       0.042450
     41 H13          2.1890     1.7220    -0.5810 ha         1 3GF       0.150000
     42 H14         -1.7810     1.2570    -1.9390 ha         1 3GF       0.148000
     43 H15         -2.9230     3.4060    -2.3030 h4         1 3GF       0.021600
     44 H16         -0.5580     5.3170     0.4590 h4         1 3GF       0.021600
     45 H17          0.6950     3.2520     0.9530 ha         1 3GF       0.148000
     46 H18         -1.9700    -2.2700    -0.9660 ha         1 3GF       0.145000
     47 H19         -4.0780    -3.4850    -1.3500 ha         1 3GF       0.133000
     48 H20         -6.4890    -3.7360    -0.9380 ha         1 3GF       0.131000
     49 H21         -7.6730    -2.1560     0.5610 ha         1 3GF       0.131000
     50 H22         -6.4490    -0.3180     1.6430 ha         1 3GF       0.131000
     51 H23         -4.3150     0.8910     2.0400 ha         1 3GF       0.133000
     52 H24         -1.9250     1.1420     1.6270 ha         1 3GF       0.134000
@<TRIPOS>BOND
     1     1     2 1   
     2     1    30 1   
     3     1    31 1   
     4     1    32 1   
     5     2     3 1   
     6     2     7 1   
     7     3     4 1   
     8     3    33 1   
     9     3    34 1   
    10     4     5 1   
    11     4    35 1   
    12     4    36 1   
    13     5     6 1   
    14     5     8 1   
    15     6     7 1   
    16     6    37 1   
    17     6    38 1   
    18     7    39 1   
    19     7    40 1   
    20     8     9 ar  
    21     8    19 ar  
    22     9    10 ar  
    23     9    41 1   
    24    10    11 1   
    25    10    17 1   
    26    11    12 ar  
    27    11    16 ar  
    28    12    13 ar  
    29    12    42 1   
    30    13    14 ar  
    31    13    43 1   
    32    14    15 ar  
    33    15    16 ar  
    34    15    44 1   
    35    16    45 1   
    36    17    18 2   
    37    17    20 1   
    38    18    19 ar  
    39    20    21 1   
    40    20    29 2   
    41    21    22 ar  
    42    21    46 1   
    43    22    23 ar  
    44    22    27 ar  
    45    23    24 ar  
    46    23    47 1   
    47    24    25 ar  
    48    24    48 1   
    49    25    26 ar  
    50    25    49 1   
    51    26    27 ar  
    52    26    50 1   
    53    27    28 ar  
    54    28    29 ar  
    55    28    51 1   
    56    29    52 1   
@<TRIPOS>SUBSTRUCTURE
     1 3GF         1 TEMP              0 ****  ****    0 ROOT
