@<TRIPOS>MOLECULE
3GF
   52    56     1     0     0
SMALL
No Charge or Current Charge


@<TRIPOS>ATOM
      1 C29          8.1200    -0.9540     0.1850 c3         1 3GF       0.151100
      2 N26          6.7310    -0.7030    -0.2550 n3         1 3GF      -0.711600
      3 C27          5.8670    -1.9170    -0.1550 c6         1 3GF       0.150300
      4 C28          4.4140    -1.6740    -0.6750 c6         1 3GF       0.218300
      5 N18          3.7570    -0.4750    -0.0500 nh         1 3GF      -0.771300
      6 C24          4.6420     0.7370    -0.0220 c6         1 3GF       0.218300
      7 C25          6.0900     0.4270     0.4790 c6         1 3GF       0.150300
      8 C14          2.3460    -0.3510    -0.0290 ca         1 3GF       0.564900
      9 C15          1.6790     0.8780    -0.1860 ca         1 3GF      -0.177000
     10 C16          0.2630     0.8870    -0.1620 cp         1 3GF      -0.002000
     11 C17         -0.4300     2.1680    -0.5090 cp         1 3GF      -0.008000
     12 C19         -1.5380     2.2050    -1.3870 ca         1 3GF      -0.146000
     13 C20         -2.1570     3.4290    -1.6900 ca         1 3GF       0.333900
     14 N21         -1.7390     4.6110    -1.1820 nb         1 3GF      -0.659000
     15 C22         -0.6750     4.5930    -0.3460 ca         1 3GF       0.333900
     16 C23         -0.0000     3.4130     0.0080 ca         1 3GF      -0.146000
     17 C11         -0.4560    -0.3910     0.0610 cq         1 3GF       0.300500
     18 N12          0.2910    -1.5130     0.1720 nb         1 3GF      -0.273000
     19 N13          1.6420    -1.5000     0.1280 nb         1 3GF      -0.401000
     20 C8          -1.9420    -0.5570     0.2780 cq         1 3GF      -0.138500
     21 C7          -2.6110    -1.7170    -0.1750 ca         1 3GF      -0.062000
     22 C6          -3.9950    -1.8730     0.0260 ca         1 3GF      -0.043000
     23 C5          -4.6540    -3.0280    -0.4390 ca         1 3GF      -0.092000
     24 C4          -6.0370    -3.1810    -0.2380 ca         1 3GF      -0.111000
     25 C3          -6.7660    -2.1820     0.4290 ca         1 3GF      -0.103000
     26 C2          -6.1130    -1.0280     0.8950 ca         1 3GF      -0.101000
     27 C1          -4.7290    -0.8710     0.6950 ca         1 3GF      -0.030000
     28 C10         -4.0680     0.2780     1.1600 ca         1 3GF      -0.103000
     29 C9          -2.6870     0.4320     0.9580 ca         1 3GF      -0.091000
     30 H1           8.5740    -1.7620    -0.4050 h1         1 3GF       0.033367
     31 H2           8.7360    -0.0540     0.0560 h1         1 3GF       0.033367
     32 H3           8.1510    -1.2440     1.2440 h1         1 3GF       0.033367
     33 H5           6.3070    -2.7460    -0.7280 h1         1 3GF       0.042450
     34 H6           5.8080    -2.2500     0.8920 h1         1 3GF       0.042450
     35 H7           4.4530    -1.5430    -1.7660 h1         1 3GF       0.057450
     36 H8           3.8400    -2.5920    -0.4830 h1         1 3GF       0.057450
     37 H9           4.7050     1.1730    -1.0300 h1         1 3GF       0.057450
     38 H10          4.2230     1.5050     0.6440 h1         1 3GF       0.057450
     39 H11          6.0410     0.1970     1.5530 h1         1 3GF       0.042450
     40 H12          6.6950     1.3400     0.3760 h1         1 3GF       0.042450
     41 H13          2.2290     1.7910    -0.3790 ha         1 3GF       0.132000
     42 H14         -1.9180     1.2940    -1.8400 ha         1 3GF       0.130000
     43 H15         -3.0120     3.4660    -2.3640 h4         1 3GF       0.021600
     44 H16         -0.3550     5.5550     0.0520 h4         1 3GF       0.021600
     45 H17          0.8410     3.4690     0.6920 ha         1 3GF       0.130000
     46 H18         -2.0630    -2.4980    -0.6980 ha         1 3GF       0.127000
     47 H19         -4.0980    -3.8070    -0.9560 ha         1 3GF       0.115000
     48 H20         -6.5430    -4.0740    -0.5980 ha         1 3GF       0.113000
     49 H21         -7.8360    -2.3010     0.5850 ha         1 3GF       0.113000
     50 H22         -6.6830    -0.2580     1.4110 ha         1 3GF       0.113000
     51 H23         -4.6230     1.0520     1.6850 ha         1 3GF       0.115000
     52 H24         -2.2020     1.3250     1.3480 ha         1 3GF       0.116000
@<TRIPOS>BOND
     1     1     2 1   
     2     1    30 1   
     3     1    31 1   
     4     1    32 1   
     5     2     3 1   
     6     2     7 1   
     7     3     4 1   
     8     3    33 1   
     9     3    34 1   
    10     4     5 1   
    11     4    35 1   
    12     4    36 1   
    13     5     6 1   
    14     5     8 1   
    15     6     7 1   
    16     6    37 1   
    17     6    38 1   
    18     7    39 1   
    19     7    40 1   
    20     8     9 ar  
    21     8    19 ar  
    22     9    10 ar  
    23     9    41 1   
    24    10    11 1   
    25    10    17 1   
    26    11    12 ar  
    27    11    16 ar  
    28    12    13 ar  
    29    12    42 1   
    30    13    14 ar  
    31    13    43 1   
    32    14    15 ar  
    33    15    16 ar  
    34    15    44 1   
    35    16    45 1   
    36    17    18 2   
    37    17    20 1   
    38    18    19 ar  
    39    20    21 1   
    40    20    29 2   
    41    21    22 ar  
    42    21    46 1   
    43    22    23 ar  
    44    22    27 ar  
    45    23    24 ar  
    46    23    47 1   
    47    24    25 ar  
    48    24    48 1   
    49    25    26 ar  
    50    25    49 1   
    51    26    27 ar  
    52    26    50 1   
    53    27    28 ar  
    54    28    29 ar  
    55    28    51 1   
    56    29    52 1   
@<TRIPOS>SUBSTRUCTURE
     1 3GF         1 TEMP              0 ****  ****    0 ROOT
