@<TRIPOS>MOLECULE
3GG
   33    35     1     0     0
SMALL
No Charge or Current Charge


@<TRIPOS>ATOM
      1 O21          1.7390    -1.4030     0.0050 o          1 3GG      -0.597100
      2 C8           1.8700    -0.1840     0.0120 c          1 3GG       0.669100
      3 N7           3.0930     0.4720     0.0500 ns         1 3GG      -0.164000
      4 C3           4.4360     0.0010     0.0900 ca         1 3GG      -0.019000
      5 C4           5.4620     0.9660     0.1230 ca         1 3GG      -0.138000
      6 C5           6.8120     0.5790     0.1630 ca         1 3GG      -0.086000
      7 C6           7.1520    -0.7820     0.1700 ca         1 3GG      -0.128000
      8 C1           6.1400    -1.7550     0.1380 ca         1 3GG      -0.086000
      9 C2           4.7880    -1.3680     0.0980 ca         1 3GG      -0.138000
     10 N9           0.8150     0.7170    -0.0180 ns         1 3GG      -0.161000
     11 C10         -0.5950     0.5420    -0.0610 ca         1 3GG       0.025000
     12 C11         -1.3930     1.7000    -0.0790 ca         1 3GG      -0.163000
     13 C12         -2.7940     1.6110    -0.1220 ca         1 3GG      -0.042500
     14 C13         -3.4340     0.3530    -0.1480 ca         1 3GG      -0.183500
     15 C14         -2.6330    -0.8100    -0.1300 ca         1 3GG      -0.042500
     16 C15         -1.2310    -0.7160    -0.0870 ca         1 3GG      -0.163000
     17 C16         -4.9010     0.2690    -0.1930 cc         1 3GG       0.471000
     18 N17         -5.6470    -0.8730    -0.2210 na         1 3GG      -0.215700
     19 N18         -6.9710    -0.5780    -0.2600 nc         1 3GG      -0.205800
     20 N19         -7.0130     0.7270    -0.2550 nd         1 3GG      -0.040000
     21 N20         -5.7520     1.2760    -0.2140 nd         1 3GG      -0.396000
     22 H1           3.0200     1.4800     0.0500 hn         1 3GG       0.148000
     23 H2           5.2130     2.0250     0.1180 ha         1 3GG       0.123500
     24 H3           7.5950     1.3350     0.1880 ha         1 3GG       0.116000
     25 H4           8.1970    -1.0840     0.2010 ha         1 3GG       0.117000
     26 H5           6.4020    -2.8110     0.1430 ha         1 3GG       0.116000
     27 H6           4.0350    -2.1480     0.0730 ha         1 3GG       0.123500
     28 H7           1.1010     1.6870    -0.0070 hn         1 3GG       0.150000
     29 H8          -0.9250     2.6820    -0.0600 ha         1 3GG       0.136000
     30 H9          -3.3800     2.5280    -0.1350 ha         1 3GG       0.125500
     31 H10         -3.0870    -1.7990    -0.1490 ha         1 3GG       0.125500
     32 H11         -0.6600    -1.6390    -0.0750 ha         1 3GG       0.136000
     33 H12         -5.3040    -1.8240    -0.2160 hn         1 3GG       0.386000
@<TRIPOS>BOND
     1     1     2 2   
     2     2     3 1   
     3     2    10 1   
     4     3     4 1   
     5     3    22 1   
     6     4     5 ar  
     7     4     9 ar  
     8     5     6 ar  
     9     5    23 1   
    10     6     7 ar  
    11     6    24 1   
    12     7     8 ar  
    13     7    25 1   
    14     8     9 ar  
    15     8    26 1   
    16     9    27 1   
    17    10    11 1   
    18    10    28 1   
    19    11    12 ar  
    20    11    16 ar  
    21    12    13 ar  
    22    12    29 1   
    23    13    14 ar  
    24    13    30 1   
    25    14    15 ar  
    26    14    17 1   
    27    15    16 ar  
    28    15    31 1   
    29    16    32 1   
    30    17    18 1   
    31    17    21 2   
    32    18    19 1   
    33    18    33 1   
    34    19    20 2   
    35    20    21 1   
@<TRIPOS>SUBSTRUCTURE
     1 3GG         1 TEMP              0 ****  ****    0 ROOT
