@<TRIPOS>MOLECULE
3GG
   33    35     1     0     0
SMALL
bcc


@<TRIPOS>ATOM
      1 O21          1.7550    -1.1510    -0.1330 o          1 3GG      -0.597100
      2 C8           1.8750     0.0440     0.0580 c          1 3GG       0.803100
      3 N7           3.0780     0.6730     0.2250 ns         1 3GG      -0.490100
      4 C3           4.3410     0.0730     0.1570 ca         1 3GG       0.073600
      5 C4           5.4000     0.8530    -0.3110 ca         1 3GG      -0.156000
      6 C5           6.6860     0.3400    -0.3580 ca         1 3GG      -0.104000
      7 C6           6.9360    -0.9640     0.0480 ca         1 3GG      -0.146000
      8 C1           5.8840    -1.7390     0.5160 ca         1 3GG      -0.104000
      9 C2           4.5930    -1.2320     0.5820 ca         1 3GG      -0.156000
     10 N9           0.8180     0.9170     0.1370 ns         1 3GG      -0.487100
     11 C10         -0.5360     0.6430     0.0240 ca         1 3GG       0.117600
     12 C11         -1.4120     1.7070     0.2800 ca         1 3GG      -0.181000
     13 C12         -2.7760     1.5430     0.1930 ca         1 3GG      -0.060500
     14 C13         -3.3210     0.3070    -0.1560 ca         1 3GG      -0.183500
     15 C14         -2.4510    -0.7480    -0.4180 ca         1 3GG      -0.060500
     16 C15         -1.0780    -0.5950    -0.3330 ca         1 3GG      -0.181000
     17 C16         -4.7630     0.1570    -0.2380 cc         1 3GG       0.471000
     18 N17         -5.4410    -0.9780    -0.4370 na         1 3GG      -0.165400
     19 N18         -6.7370    -0.7150    -0.4470 nc         1 3GG      -0.205800
     20 N19         -6.8500     0.5390    -0.2590 nd         1 3GG      -0.040000
     21 N20         -5.6580     1.1150    -0.1260 nd         1 3GG      -0.396000
     22 H1           3.0860     1.6820     0.2110 hn         1 3GG       0.314500
     23 H2           5.2140     1.8680    -0.6410 ha         1 3GG       0.141500
     24 H3           7.4930     0.9620    -0.7220 ha         1 3GG       0.134000
     25 H4           7.9390    -1.3690     0.0070 ha         1 3GG       0.135000
     26 H5           6.0660    -2.7530     0.8480 ha         1 3GG       0.134000
     27 H6           3.8010    -1.8500     0.9730 ha         1 3GG       0.141500
     28 H7           1.0310     1.8780     0.3580 hn         1 3GG       0.316500
     29 H8          -1.0130     2.6740     0.5610 ha         1 3GG       0.154000
     30 H9          -3.4240     2.3840     0.4040 ha         1 3GG       0.143500
     31 H10         -2.8270    -1.7210    -0.7060 ha         1 3GG       0.143500
     32 H11         -0.4460    -1.4400    -0.5480 ha         1 3GG       0.154000
     33 H12         -5.1150    -1.9260    -0.5580 hn         1 3GG       0.335700
@<TRIPOS>BOND
     1     1     2 2   
     2     2     3 1   
     3     2    10 1   
     4     3     4 1   
     5     3    22 1   
     6     4     5 ar  
     7     4     9 ar  
     8     5     6 ar  
     9     5    23 1   
    10     6     7 ar  
    11     6    24 1   
    12     7     8 ar  
    13     7    25 1   
    14     8     9 ar  
    15     8    26 1   
    16     9    27 1   
    17    10    11 1   
    18    10    28 1   
    19    11    12 ar  
    20    11    16 ar  
    21    12    13 ar  
    22    12    29 1   
    23    13    14 ar  
    24    13    30 1   
    25    14    15 ar  
    26    14    17 1   
    27    15    16 ar  
    28    15    31 1   
    29    16    32 1   
    30    17    18 1   
    31    17    21 2   
    32    18    19 1   
    33    18    33 1   
    34    19    20 2   
    35    20    21 1   
@<TRIPOS>SUBSTRUCTURE
     1 3GG         1 TEMP              0 ****  ****    0 ROOT
