@<TRIPOS>MOLECULE
3GH
  157   157     1     0     0
SMALL
bcc


@<TRIPOS>ATOM
      1 C1          -5.9840     5.1900     0.9400 c3         1 3GH       0.119400
      2 C2          -6.2870     3.7330     1.2590 c3         1 3GH       0.081700
      3 N2          -5.2370     2.8790     0.7490 ns         1 3GH      -0.573900
      4 C3          -7.6540     3.2580     0.7340 c3         1 3GH       0.139100
      5 O3          -8.6690     4.1500     1.1390 oh         1 3GH      -0.583800
      6 C4          -7.9510     1.8220     1.1520 c3         1 3GH      -0.110400
      7 C5          -9.2940     1.3000     0.6570 c3         1 3GH      -0.071400
      8 C6          -9.4840    -0.1800     0.9720 c3         1 3GH      -0.076400
      9 C7         -10.8220    -0.7380     0.5050 c3         1 3GH      -0.074400
     10 C8         -10.9660    -2.2310     0.7760 c3         1 3GH      -0.074400
     11 C9         -12.2990    -2.8090     0.3180 c3         1 3GH      -0.074400
     12 C10        -12.4090    -4.3110     0.5520 c3         1 3GH      -0.074400
     13 C11        -13.7370    -4.9010     0.0950 c3         1 3GH      -0.074400
     14 C12        -13.8240    -6.4090     0.2980 c3         1 3GH      -0.074400
     15 C13        -15.1480    -7.0060    -0.1620 c3         1 3GH      -0.074400
     16 C14        -15.2210    -8.5170     0.0190 c3         1 3GH      -0.074400
     17 C15        -16.5430    -9.1170    -0.4450 c3         1 3GH      -0.074400
     18 C16        -16.6060   -10.6310    -0.2810 c3         1 3GH      -0.075400
     19 C17        -17.9270   -11.2340    -0.7450 c3         1 3GH      -0.075400
     20 C18        -17.9750   -12.7470    -0.5820 c3         1 3GH      -0.088100
     21 C1A         -5.3070     6.4740    -0.9250 c6         1 3GH       0.301900
     22 O1A         -5.9870     5.3550    -0.4630 os         1 3GH      -0.429600
     23 C2A         -5.6510     6.6830    -2.4030 c6         1 3GH       0.137100
     24 O2A         -7.0360     6.7500    -2.6280 oh         1 3GH      -0.579800
     25 C3A         -5.0700     5.5500    -3.2320 c6         1 3GH      -0.109400
     26 C4A         -3.5700     5.4130    -2.9790 c6         1 3GH       0.117100
     27 O4A         -2.8470     6.5270    -3.4580 oh         1 3GH      -0.589800
     28 C5M         -3.3250     5.2850    -1.4830 c6         1 3GH       0.155100
     29 C6A         -1.8580     5.2330    -1.1200 c3         1 3GH       0.145400
     30 O6A         -3.9180     6.3570    -0.7670 os         1 3GH      -0.404600
     31 CAA         -4.1470     2.5180     1.4570 c          1 3GH       0.675100
     32 OAA         -4.0150     2.7810     2.6430 o          1 3GH      -0.602100
     33 CAB         -3.1120     1.7460     0.6670 c3         1 3GH      -0.151400
     34 CAC         -1.8040     1.5340     1.4120 c3         1 3GH      -0.064400
     35 CAD         -0.7180     0.9580     0.5120 c3         1 3GH      -0.076400
     36 CAE          0.5980     0.7400     1.2480 c3         1 3GH      -0.076400
     37 CAF          1.7430     0.3080     0.3390 c3         1 3GH      -0.073400
     38 CAG          3.0520     0.1140     1.0940 c3         1 3GH      -0.075400
     39 CAH          4.2430    -0.1900     0.1940 c3         1 3GH      -0.073400
     40 CAI          5.5430    -0.3670     0.9690 c3         1 3GH      -0.074400
     41 CAJ          6.7630    -0.5550     0.0750 c3         1 3GH      -0.074400
     42 CAK          8.0600    -0.7240     0.8570 c3         1 3GH      -0.074400
     43 CAL          9.2890    -0.8390    -0.0360 c3         1 3GH      -0.074400
     44 CAM         10.5890    -1.0000     0.7430 c3         1 3GH      -0.074400
     45 CAN         11.8190    -1.0740    -0.1530 c3         1 3GH      -0.074400
     46 CAO         13.1230    -1.2290     0.6200 c3         1 3GH      -0.074400
     47 CAP         14.3510    -1.2780    -0.2800 c3         1 3GH      -0.074400
     48 CAQ         15.6590    -1.4280     0.4870 c3         1 3GH      -0.074400
     49 CAR         16.8840    -1.4640    -0.4170 c3         1 3GH      -0.074400
     50 CAS         18.1950    -1.6070     0.3450 c3         1 3GH      -0.074400
     51 CAT         19.4180    -1.6350    -0.5640 c3         1 3GH      -0.074400
     52 CAU         20.7320    -1.7710     0.1940 c3         1 3GH      -0.074400
     53 CAV         21.9520    -1.7930    -0.7190 c3         1 3GH      -0.074400
     54 CAW         23.2700    -1.9190     0.0350 c3         1 3GH      -0.074400
     55 CAX         24.4860    -1.9380    -0.8830 c3         1 3GH      -0.075400
     56 CAY         25.8080    -2.0520    -0.1340 c3         1 3GH      -0.074400
     57 CAZ         27.0120    -2.0680    -1.0650 c3         1 3GH      -0.088100
     58 H1          -6.7250     5.8490     1.4070 h1         1 3GH       0.052200
     59 H1A         -5.0070     5.4350     1.3690 h1         1 3GH       0.052200
     60 H2          -6.2890     3.6370     2.3490 h1         1 3GH       0.081700
     61 HN2         -5.2440     2.6800    -0.2390 hn         1 3GH       0.310500
     62 H3          -7.6450     3.3080    -0.3610 h1         1 3GH       0.084700
     63 HO3         -8.8060     4.0460     2.0870 ho         1 3GH       0.397000
     64 H4          -7.1570     1.1750     0.7720 hc         1 3GH       0.046700
     65 H4A         -7.9050     1.7450     2.2460 hc         1 3GH       0.046700
     66 H5         -10.1120     1.8730     1.1020 hc         1 3GH       0.044700
     67 H5A         -9.3670     1.4500    -0.4260 hc         1 3GH       0.044700
     68 H6          -8.6730    -0.7510     0.5060 hc         1 3GH       0.036200
     69 H6A         -9.3830    -0.3370     2.0510 hc         1 3GH       0.036200
     70 H7         -11.6370    -0.1970     0.9990 hc         1 3GH       0.038200
     71 H7A        -10.9400    -0.5520    -0.5680 hc         1 3GH       0.038200
     72 H8         -10.1500    -2.7650     0.2770 hc         1 3GH       0.036700
     73 H8A        -10.8390    -2.4190     1.8480 hc         1 3GH       0.036700
     74 H9         -13.1180    -2.2980     0.8380 hc         1 3GH       0.037700
     75 H9A        -12.4400    -2.5980    -0.7480 hc         1 3GH       0.037700
     76 H10        -11.5890    -4.8170     0.0290 hc         1 3GH       0.037200
     77 H10A       -12.2650    -4.5240     1.6170 hc         1 3GH       0.037200
     78 H11        -14.5580    -4.4130     0.6320 hc         1 3GH       0.037200
     79 H11A       -13.8910    -4.6710    -0.9660 hc         1 3GH       0.037200
     80 H12        -13.0020    -6.8940    -0.2400 hc         1 3GH       0.036700
     81 H12A       -13.6690    -6.6420     1.3580 hc         1 3GH       0.036700
     82 H13        -15.9710    -6.5340     0.3870 hc         1 3GH       0.037200
     83 H13A       -15.3090    -6.7600    -1.2170 hc         1 3GH       0.037200
     84 H14        -14.3970    -8.9870    -0.5310 hc         1 3GH       0.037200
     85 H14A       -15.0590    -8.7650     1.0740 hc         1 3GH       0.037200
     86 H15        -17.3660    -8.6560     0.1120 hc         1 3GH       0.036700
     87 H15A       -16.7080    -8.8600    -1.4970 hc         1 3GH       0.036700
     88 H16        -15.7830   -11.0910    -0.8390 hc         1 3GH       0.036700
     89 H16A       -16.4400   -10.8900     0.7710 hc         1 3GH       0.036700
     90 H17        -18.7490   -10.7770    -0.1850 hc         1 3GH       0.036700
     91 H17A       -18.0950   -10.9740    -1.7940 hc         1 3GH       0.036700
     92 H18        -17.1860   -13.2290    -1.1630 hc         1 3GH       0.031367
     93 H18A       -17.8380   -13.0370     0.4610 hc         1 3GH       0.031367
     94 H18B       -18.9280   -13.1580    -0.9160 hc         1 3GH       0.031367
     95 H1AA        -5.5850     7.3650    -0.3420 h2         1 3GH       0.066700
     96 H2A         -5.1610     7.6200    -2.7000 h1         1 3GH       0.052700
     97 HO2A        -7.3800     7.5370    -2.1950 ho         1 3GH       0.408000
     98 H3A         -5.5610     4.6080    -2.9720 hc         1 3GH       0.063700
     99 H3AA        -5.2590     5.7240    -4.2960 hc         1 3GH       0.063700
    100 H4AA        -3.2170     4.4860    -3.4530 h1         1 3GH       0.036700
    101 HO4A        -3.0230     6.6170    -4.4000 ho         1 3GH       0.404000
    102 HO5A        -0.8160     4.7760     0.4470 ho         1 3GH       0.405000
    103 H5M         -3.7720     4.3300    -1.1780 h1         1 3GH       0.048700
    104 H6AA        -1.3790     6.1960    -1.3340 h1         1 3GH       0.034200
    105 H6AB        -1.3800     4.4840    -1.7660 h1         1 3GH       0.034200
    106 HAB         -3.5440     0.7840     0.3730 hc         1 3GH       0.052700
    107 HABA        -2.9150     2.2800    -0.2680 hc         1 3GH       0.052700
    108 HAC         -1.4580     2.4890     1.8160 hc         1 3GH       0.057200
    109 HACA        -1.9610     0.8740     2.2690 hc         1 3GH       0.057200
    110 HAD         -1.0560     0.0130     0.0730 hc         1 3GH       0.032700
    111 HADA        -0.5530     1.6430    -0.3270 hc         1 3GH       0.032700
    112 HAE          0.8820     1.6680     1.7560 hc         1 3GH       0.040200
    113 HAEA         0.4570    -0.0060     2.0380 hc         1 3GH       0.040200
    114 HAF          1.4750    -0.6200    -0.1770 hc         1 3GH       0.036200
    115 HAFA         1.8830     1.0630    -0.4420 hc         1 3GH       0.036200
    116 HAG          3.2680     1.0190     1.6730 hc         1 3GH       0.037700
    117 HAGA         2.9330    -0.6910     1.8290 hc         1 3GH       0.037700
    118 HAH          4.0430    -1.0920    -0.3940 hc         1 3GH       0.036700
    119 HAHA         4.3620     0.6240    -0.5310 hc         1 3GH       0.036700
    120 HAI          5.7020     0.5070     1.6110 hc         1 3GH       0.037200
    121 HAIA         5.4490    -1.2230     1.6460 hc         1 3GH       0.037200
    122 HAJ          6.6130    -1.4250    -0.5740 hc         1 3GH       0.036700
    123 HAJA         6.8540     0.3070    -0.5950 hc         1 3GH       0.036700
    124 HAK          8.1870     0.1270     1.5360 hc         1 3GH       0.037700
    125 HAKA         7.9880    -1.6110     1.4960 hc         1 3GH       0.037700
    126 HAL          9.1660    -1.6870    -0.7190 hc         1 3GH       0.036700
    127 HALA         9.3570     0.0510    -0.6720 hc         1 3GH       0.036700
    128 HAM         10.7000    -0.1630     1.4410 hc         1 3GH       0.037700
    129 HAMA        10.5340    -1.9040     1.3610 hc         1 3GH       0.037700
    130 HAN         11.7100    -1.9100    -0.8530 hc         1 3GH       0.036700
    131 HANA        11.8700    -0.1700    -0.7700 hc         1 3GH       0.036700
    132 HAO         13.2270    -0.3990     1.3280 hc         1 3GH       0.037200
    133 HAOA        13.0800    -2.1400     1.2280 hc         1 3GH       0.037200
    134 HAP         14.2480    -2.1080    -0.9880 hc         1 3GH       0.036700
    135 HAPA        14.3900    -0.3670    -0.8880 hc         1 3GH       0.036700
    136 HAQ         15.7590    -0.6010     1.1990 hc         1 3GH       0.037200
    137 HAQA        15.6250    -2.3430     1.0900 hc         1 3GH       0.037200
    138 HAR         16.7850    -2.2910    -1.1290 hc         1 3GH       0.036700
    139 HARA        16.9140    -0.5490    -1.0210 hc         1 3GH       0.036700
    140 HAS         18.2930    -0.7810     1.0580 hc         1 3GH       0.037700
    141 HASA        18.1690    -2.5240     0.9460 hc         1 3GH       0.037700
    142 HAT         19.3210    -2.4620    -1.2760 hc         1 3GH       0.036700
    143 HATA        19.4400    -0.7200    -1.1670 hc         1 3GH       0.036700
    144 HAU         20.8280    -0.9440     0.9060 hc         1 3GH       0.037200
    145 HAUA        20.7130    -2.6870     0.7950 hc         1 3GH       0.037200
    146 HAV         21.8580    -2.6230    -1.4290 hc         1 3GH       0.036700
    147 HAVA        21.9670    -0.8790    -1.3250 hc         1 3GH       0.036700
    148 HAW         23.3640    -1.0890     0.7430 hc         1 3GH       0.036700
    149 HAWA        23.2570    -2.8330     0.6400 hc         1 3GH       0.036700
    150 HAX         24.3950    -2.7720    -1.5880 hc         1 3GH       0.036700
    151 HAXA        24.4940    -1.0280    -1.4930 hc         1 3GH       0.036700
    152 HAY         25.8980    -1.2180     0.5690 hc         1 3GH       0.036700
    153 HAYA        25.8030    -2.9610     0.4760 hc         1 3GH       0.036700
    154 HAZ         27.9500    -2.1420    -0.5130 hc         1 3GH       0.031367
    155 HAZA        26.9650    -2.9140    -1.7530 hc         1 3GH       0.031367
    156 HAZB        27.0550    -1.1570    -1.6670 hc         1 3GH       0.031367
    157 O5A         -1.7480     4.8880     0.2420 oh         1 3GH      -0.591800
@<TRIPOS>BOND
     1     1     2 1   
     2     1    22 1   
     3     1    58 1   
     4     1    59 1   
     5     2     3 1   
     6     2     4 1   
     7     2    60 1   
     8     3    31 1   
     9     3    61 1   
    10     4     5 1   
    11     4     6 1   
    12     4    62 1   
    13     5    63 1   
    14     6     7 1   
    15     6    64 1   
    16     6    65 1   
    17     7     8 1   
    18     7    66 1   
    19     7    67 1   
    20     8     9 1   
    21     8    68 1   
    22     8    69 1   
    23     9    10 1   
    24     9    70 1   
    25     9    71 1   
    26    10    11 1   
    27    10    72 1   
    28    10    73 1   
    29    11    12 1   
    30    11    74 1   
    31    11    75 1   
    32    12    13 1   
    33    12    76 1   
    34    12    77 1   
    35    13    14 1   
    36    13    78 1   
    37    13    79 1   
    38    14    15 1   
    39    14    80 1   
    40    14    81 1   
    41    15    16 1   
    42    15    82 1   
    43    15    83 1   
    44    16    17 1   
    45    16    84 1   
    46    16    85 1   
    47    17    18 1   
    48    17    86 1   
    49    17    87 1   
    50    18    19 1   
    51    18    88 1   
    52    18    89 1   
    53    19    20 1   
    54    19    90 1   
    55    19    91 1   
    56    20    92 1   
    57    20    93 1   
    58    20    94 1   
    59    21    22 1   
    60    21    23 1   
    61    21    30 1   
    62    21    95 1   
    63    23    24 1   
    64    23    25 1   
    65    23    96 1   
    66    24    97 1   
    67    25    26 1   
    68    25    98 1   
    69    25    99 1   
    70    26    27 1   
    71    26    28 1   
    72    26   100 1   
    73    27   101 1   
    74    28    29 1   
    75    28    30 1   
    76    28   103 1   
    77    29   104 1   
    78    29   105 1   
    79    29   157 1   
    80    31    32 2   
    81    31    33 1   
    82    33    34 1   
    83    33   106 1   
    84    33   107 1   
    85    34    35 1   
    86    34   108 1   
    87    34   109 1   
    88    35    36 1   
    89    35   110 1   
    90    35   111 1   
    91    36    37 1   
    92    36   112 1   
    93    36   113 1   
    94    37    38 1   
    95    37   114 1   
    96    37   115 1   
    97    38    39 1   
    98    38   116 1   
    99    38   117 1   
   100    39    40 1   
   101    39   118 1   
   102    39   119 1   
   103    40    41 1   
   104    40   120 1   
   105    40   121 1   
   106    41    42 1   
   107    41   122 1   
   108    41   123 1   
   109    42    43 1   
   110    42   124 1   
   111    42   125 1   
   112    43    44 1   
   113    43   126 1   
   114    43   127 1   
   115    44    45 1   
   116    44   128 1   
   117    44   129 1   
   118    45    46 1   
   119    45   130 1   
   120    45   131 1   
   121    46    47 1   
   122    46   132 1   
   123    46   133 1   
   124    47    48 1   
   125    47   134 1   
   126    47   135 1   
   127    48    49 1   
   128    48   136 1   
   129    48   137 1   
   130    49    50 1   
   131    49   138 1   
   132    49   139 1   
   133    50    51 1   
   134    50   140 1   
   135    50   141 1   
   136    51    52 1   
   137    51   142 1   
   138    51   143 1   
   139    52    53 1   
   140    52   144 1   
   141    52   145 1   
   142    53    54 1   
   143    53   146 1   
   144    53   147 1   
   145    54    55 1   
   146    54   148 1   
   147    54   149 1   
   148    55    56 1   
   149    55   150 1   
   150    55   151 1   
   151    56    57 1   
   152    56   152 1   
   153    56   153 1   
   154    57   154 1   
   155    57   155 1   
   156    57   156 1   
   157   102   157 1   
@<TRIPOS>SUBSTRUCTURE
     1 3GH         1 TEMP              0 ****  ****    0 ROOT
