@<TRIPOS>MOLECULE
3GH
  157   157     1     0     0
SMALL
No Charge or Current Charge


@<TRIPOS>ATOM
      1 C1          -5.5930     4.5150     0.5430 c3         1 3GH       0.142600
      2 C2          -6.1550     3.1880     1.1120 c3         1 3GH       0.081700
      3 N2          -5.1060     2.1530     1.0570 ns         1 3GH      -0.506900
      4 C3          -7.4740     2.7280     0.4150 c3         1 3GH       0.162300
      5 O3          -8.4920     3.7280     0.5940 oh         1 3GH      -0.646000
      6 C4          -8.0110     1.3690     0.9430 c3         1 3GH      -0.110400
      7 C5          -9.2800     0.8590     0.2160 c3         1 3GH      -0.071400
      8 C6          -9.7430    -0.5270     0.7190 c3         1 3GH      -0.076400
      9 C7         -11.0090    -1.0390    -0.0020 c3         1 3GH      -0.074400
     10 C8         -11.4660    -2.4290     0.4940 c3         1 3GH      -0.074400
     11 C9         -12.7330    -2.9410    -0.2240 c3         1 3GH      -0.074400
     12 C10        -13.1840    -4.3340     0.2670 c3         1 3GH      -0.074400
     13 C11        -14.4530    -4.8470    -0.4480 c3         1 3GH      -0.074400
     14 C12        -14.8990    -6.2430     0.0390 c3         1 3GH      -0.074400
     15 C13        -16.1680    -6.7560    -0.6760 c3         1 3GH      -0.074400
     16 C14        -16.6090    -8.1550    -0.1920 c3         1 3GH      -0.074400
     17 C15        -17.8780    -8.6690    -0.9060 c3         1 3GH      -0.074400
     18 C16        -18.3170   -10.0700    -0.4260 c3         1 3GH      -0.075400
     19 C17        -19.5860   -10.5840    -1.1400 c3         1 3GH      -0.075400
     20 C18        -20.0230   -11.9820    -0.6610 c3         1 3GH      -0.088100
     21 C1A         -4.3990     5.3580    -1.4260 c6         1 3GH       0.348300
     22 O1A         -5.1030     4.2690    -0.7920 os         1 3GH      -0.476000
     23 C2A         -4.0670     4.9980    -2.9200 c6         1 3GH       0.160300
     24 O2A         -5.2430     4.5470    -3.6180 oh         1 3GH      -0.702000
     25 C3A         -2.9700     3.8970    -2.9980 c6         1 3GH      -0.109400
     26 C4A         -1.7330     4.2720    -2.1430 c6         1 3GH       0.140300
     27 O4A         -1.0530     5.3870    -2.7520 oh         1 3GH      -0.712000
     28 C5M         -2.2080     4.5890    -0.6850 c6         1 3GH       0.178300
     29 C6A         -1.0270     4.9880     0.2610 c3         1 3GH       0.168600
     30 O6A         -3.1940     5.6590    -0.6860 os         1 3GH      -0.451000
     31 CAA         -4.4700     1.6020     2.1450 c          1 3GH       0.608100
     32 OAA         -4.7910     1.8560     3.2970 o          1 3GH      -0.602100
     33 CAB         -3.3430     0.6250     1.7960 c3         1 3GH      -0.151400
     34 CAC         -1.9560     1.2710     2.0190 c3         1 3GH      -0.064400
     35 CAD         -0.7870     0.3660     1.5740 c3         1 3GH      -0.076400
     36 CAE          0.5950     1.0290     1.7680 c3         1 3GH      -0.076400
     37 CAF          1.7650     0.1290     1.3160 c3         1 3GH      -0.073400
     38 CAG          3.1460     0.7940     1.5020 c3         1 3GH      -0.075400
     39 CAH          4.3160    -0.1060     1.0500 c3         1 3GH      -0.073400
     40 CAI          5.6970     0.5620     1.2310 c3         1 3GH      -0.074400
     41 CAJ          6.8670    -0.3390     0.7780 c3         1 3GH      -0.074400
     42 CAK          8.2480     0.3310     0.9530 c3         1 3GH      -0.074400
     43 CAL          9.4180    -0.5700     0.5020 c3         1 3GH      -0.074400
     44 CAM         10.7980     0.1020     0.6690 c3         1 3GH      -0.074400
     45 CAN         11.9680    -0.8010     0.2190 c3         1 3GH      -0.074400
     46 CAO         13.3480    -0.1260     0.3780 c3         1 3GH      -0.074400
     47 CAP         14.5180    -1.0290    -0.0710 c3         1 3GH      -0.074400
     48 CAQ         15.8970    -0.3520     0.0820 c3         1 3GH      -0.074400
     49 CAR         17.0660    -1.2550    -0.3680 c3         1 3GH      -0.074400
     50 CAS         18.4460    -0.5760    -0.2190 c3         1 3GH      -0.074400
     51 CAT         19.6150    -1.4790    -0.6700 c3         1 3GH      -0.074400
     52 CAU         20.9940    -0.8000    -0.5220 c3         1 3GH      -0.074400
     53 CAV         22.1630    -1.7020    -0.9740 c3         1 3GH      -0.074400
     54 CAW         23.5420    -1.0230    -0.8270 c3         1 3GH      -0.074400
     55 CAX         24.7120    -1.9250    -1.2790 c3         1 3GH      -0.075400
     56 CAY         26.0910    -1.2460    -1.1320 c3         1 3GH      -0.074400
     57 CAZ         27.2580    -2.1460    -1.5830 c3         1 3GH      -0.088100
     58 H1          -6.3680     5.2920     0.5430 h1         1 3GH       0.052200
     59 H1A         -4.7780     4.8540     1.1970 h1         1 3GH       0.052200
     60 H2          -6.4010     3.3740     2.1660 h1         1 3GH       0.081700
     61 HN2         -4.7510     1.8930     0.1450 hn         1 3GH       0.310500
     62 H3          -7.2570     2.6090    -0.6570 h1         1 3GH       0.084700
     63 HO3         -8.9030     3.5680     1.4700 ho         1 3GH       0.436000
     64 H4          -7.2300     0.6070     0.8300 hc         1 3GH       0.046700
     65 H4A         -8.2130     1.4490     2.0190 hc         1 3GH       0.046700
     66 H5         -10.0980     1.5770     0.3510 hc         1 3GH       0.044700
     67 H5A         -9.0780     0.8010    -0.8610 hc         1 3GH       0.044700
     68 H6          -8.9310    -1.2510     0.5790 hc         1 3GH       0.036200
     69 H6A         -9.9410    -0.4710     1.7970 hc         1 3GH       0.036200
     70 H7         -11.8240    -0.3190     0.1430 hc         1 3GH       0.038200
     71 H7A        -10.8140    -1.0890    -1.0810 hc         1 3GH       0.038200
     72 H8         -10.6520    -3.1490     0.3470 hc         1 3GH       0.036700
     73 H8A        -11.6590    -2.3800     1.5740 hc         1 3GH       0.036700
     74 H9         -13.5490    -2.2230    -0.0710 hc         1 3GH       0.037700
     75 H9A        -12.5420    -2.9850    -1.3040 hc         1 3GH       0.037700
     76 H10        -12.3690    -5.0520     0.1120 hc         1 3GH       0.037200
     77 H10A       -13.3720    -4.2910     1.3480 hc         1 3GH       0.037200
     78 H11        -15.2700    -4.1320    -0.2890 hc         1 3GH       0.037200
     79 H11A       -14.2670    -4.8850    -1.5290 hc         1 3GH       0.037200
     80 H12        -14.0820    -6.9570    -0.1210 hc         1 3GH       0.036700
     81 H12A       -15.0840    -6.2050     1.1200 hc         1 3GH       0.036700
     82 H13        -16.9870    -6.0440    -0.5120 hc         1 3GH       0.037200
     83 H13A       -15.9840    -6.7900    -1.7570 hc         1 3GH       0.037200
     84 H14        -15.7900    -8.8670    -0.3560 hc         1 3GH       0.037200
     85 H14A       -16.7930    -8.1210     0.8890 hc         1 3GH       0.037200
     86 H15        -18.6980    -7.9590    -0.7400 hc         1 3GH       0.036700
     87 H15A       -17.6950    -8.7010    -1.9880 hc         1 3GH       0.036700
     88 H16        -17.4980   -10.7810    -0.5920 hc         1 3GH       0.036700
     89 H16A       -18.5000   -10.0390     0.6560 hc         1 3GH       0.036700
     90 H17        -20.4090    -9.8770    -0.9730 hc         1 3GH       0.036700
     91 H17A       -19.4070   -10.6180    -2.2210 hc         1 3GH       0.036700
     92 H18        -19.2340   -12.7200    -0.8470 hc         1 3GH       0.031367
     93 H18A       -20.2450   -11.9730     0.4130 hc         1 3GH       0.031367
     94 H18B       -20.9260   -12.3040    -1.1950 hc         1 3GH       0.031367
     95 H1AA        -5.0480     6.2470    -1.4240 h2         1 3GH       0.066700
     96 H2A         -3.6780     5.9070    -3.4030 h1         1 3GH       0.052700
     97 HO2A        -5.7470     4.0170    -2.9560 ho         1 3GH       0.507000
     98 H3A         -3.3790     2.9440    -2.6360 hc         1 3GH       0.063700
     99 H3AA        -2.6770     3.7280    -4.0430 hc         1 3GH       0.063700
    100 H4AA        -1.0590     3.4030    -2.1060 h1         1 3GH       0.036700
    101 HO4A        -0.6690     5.0640    -3.6000 ho         1 3GH       0.503000
    102 HO5A        -0.6620     5.6140     2.0930 ho         1 3GH       0.504000
    103 H5M         -2.6710     3.6850    -0.2640 h1         1 3GH       0.048700
    104 H6AA        -0.5420     5.8830    -0.1520 h1         1 3GH       0.034200
    105 H6AB        -0.2860     4.1780     0.2390 h1         1 3GH       0.034200
    106 HAB         -3.4240    -0.2590     2.4400 hc         1 3GH       0.052700
    107 HABA        -3.4200     0.3290     0.7430 hc         1 3GH       0.052700
    108 HAC         -1.9070     2.2150     1.4640 hc         1 3GH       0.057200
    109 HACA        -1.8390     1.5210     3.0810 hc         1 3GH       0.057200
    110 HAD         -0.8210    -0.5720     2.1410 hc         1 3GH       0.032700
    111 HADA        -0.9140     0.1070     0.5160 hc         1 3GH       0.032700
    112 HAE          0.6260     1.9690     1.2030 hc         1 3GH       0.040200
    113 HAEA         0.7260     1.2870     2.8260 hc         1 3GH       0.040200
    114 HAF          1.7380    -0.8100     1.8850 hc         1 3GH       0.036200
    115 HAFA         1.6310    -0.1330     0.2590 hc         1 3GH       0.036200
    116 HAG          3.1730     1.7330     0.9340 hc         1 3GH       0.037700
    117 HAGA         3.2800     1.0560     2.5590 hc         1 3GH       0.037700
    118 HAH          4.2920    -1.0430     1.6200 hc         1 3GH       0.036700
    119 HAHA         4.1800    -0.3700    -0.0070 hc         1 3GH       0.036700
    120 HAI          5.7220     1.4990     0.6590 hc         1 3GH       0.037200
    121 HAIA         5.8340     0.8270     2.2870 hc         1 3GH       0.037200
    122 HAJ          6.8450    -1.2730     1.3520 hc         1 3GH       0.036700
    123 HAJA         6.7280    -0.6070    -0.2770 hc         1 3GH       0.036700
    124 HAK          8.2700     1.2650     0.3770 hc         1 3GH       0.037700
    125 HAKA         8.3870     0.6010     2.0070 hc         1 3GH       0.037700
    126 HAL          9.3980    -1.5020     1.0800 hc         1 3GH       0.036700
    127 HALA         9.2760    -0.8430    -0.5520 hc         1 3GH       0.036700
    128 HAM         10.8180     1.0330     0.0890 hc         1 3GH       0.037700
    129 HAMA        10.9400     0.3770     1.7220 hc         1 3GH       0.037700
    130 HAN         11.9520    -1.7300     0.8020 hc         1 3GH       0.036700
    131 HANA        11.8230    -1.0800    -0.8320 hc         1 3GH       0.036700
    132 HAO         13.3650     0.8030    -0.2060 hc         1 3GH       0.037200
    133 HAOA        13.4930     0.1540     1.4290 hc         1 3GH       0.037200
    134 HAP         14.5040    -1.9550     0.5160 hc         1 3GH       0.036700
    135 HAPA        14.3700    -1.3120    -1.1210 hc         1 3GH       0.036700
    136 HAQ         15.9110     0.5750    -0.5060 hc         1 3GH       0.037200
    137 HAQA        16.0450    -0.0680     1.1310 hc         1 3GH       0.037200
    138 HAR         17.0540    -2.1800     0.2210 hc         1 3GH       0.036700
    139 HARA        16.9180    -1.5400    -1.4170 hc         1 3GH       0.036700
    140 HAS         18.4580     0.3490    -0.8070 hc         1 3GH       0.037700
    141 HASA        18.5950    -0.2910     0.8300 hc         1 3GH       0.037700
    142 HAT         19.6040    -2.4040    -0.0800 hc         1 3GH       0.036700
    143 HATA        19.4650    -1.7650    -1.7180 hc         1 3GH       0.036700
    144 HAU         21.0050     0.1260    -1.1120 hc         1 3GH       0.037200
    145 HAUA        21.1440    -0.5140     0.5260 hc         1 3GH       0.037200
    146 HAV         22.1530    -2.6270    -0.3840 hc         1 3GH       0.036700
    147 HAVA        22.0130    -1.9890    -2.0220 hc         1 3GH       0.036700
    148 HAW         23.5530    -0.0970    -1.4170 hc         1 3GH       0.036700
    149 HAWA        23.6930    -0.7360     0.2210 hc         1 3GH       0.036700
    150 HAX         24.7010    -2.8500    -0.6890 hc         1 3GH       0.036700
    151 HAXA        24.5610    -2.2110    -2.3280 hc         1 3GH       0.036700
    152 HAY         26.1060    -0.3210    -1.7220 hc         1 3GH       0.036700
    153 HAYA        26.2460    -0.9600    -0.0850 hc         1 3GH       0.036700
    154 HAZ         28.2130    -1.6220    -1.4600 hc         1 3GH       0.031367
    155 HAZA        27.2910    -3.0660    -0.9870 hc         1 3GH       0.031367
    156 HAZB        27.1500    -2.4210    -2.6390 hc         1 3GH       0.031367
    157 O5A         -1.4400     5.2380     1.6210 oh         1 3GH      -0.714000
@<TRIPOS>BOND
     1     1     2 1   
     2     1    22 1   
     3     1    58 1   
     4     1    59 1   
     5     2     3 1   
     6     2     4 1   
     7     2    60 1   
     8     3    31 1   
     9     3    61 1   
    10     4     5 1   
    11     4     6 1   
    12     4    62 1   
    13     5    63 1   
    14     6     7 1   
    15     6    64 1   
    16     6    65 1   
    17     7     8 1   
    18     7    66 1   
    19     7    67 1   
    20     8     9 1   
    21     8    68 1   
    22     8    69 1   
    23     9    10 1   
    24     9    70 1   
    25     9    71 1   
    26    10    11 1   
    27    10    72 1   
    28    10    73 1   
    29    11    12 1   
    30    11    74 1   
    31    11    75 1   
    32    12    13 1   
    33    12    76 1   
    34    12    77 1   
    35    13    14 1   
    36    13    78 1   
    37    13    79 1   
    38    14    15 1   
    39    14    80 1   
    40    14    81 1   
    41    15    16 1   
    42    15    82 1   
    43    15    83 1   
    44    16    17 1   
    45    16    84 1   
    46    16    85 1   
    47    17    18 1   
    48    17    86 1   
    49    17    87 1   
    50    18    19 1   
    51    18    88 1   
    52    18    89 1   
    53    19    20 1   
    54    19    90 1   
    55    19    91 1   
    56    20    92 1   
    57    20    93 1   
    58    20    94 1   
    59    21    22 1   
    60    21    23 1   
    61    21    30 1   
    62    21    95 1   
    63    23    24 1   
    64    23    25 1   
    65    23    96 1   
    66    24    97 1   
    67    25    26 1   
    68    25    98 1   
    69    25    99 1   
    70    26    27 1   
    71    26    28 1   
    72    26   100 1   
    73    27   101 1   
    74    28    29 1   
    75    28    30 1   
    76    28   103 1   
    77    29   104 1   
    78    29   105 1   
    79    29   157 1   
    80    31    32 2   
    81    31    33 1   
    82    33    34 1   
    83    33   106 1   
    84    33   107 1   
    85    34    35 1   
    86    34   108 1   
    87    34   109 1   
    88    35    36 1   
    89    35   110 1   
    90    35   111 1   
    91    36    37 1   
    92    36   112 1   
    93    36   113 1   
    94    37    38 1   
    95    37   114 1   
    96    37   115 1   
    97    38    39 1   
    98    38   116 1   
    99    38   117 1   
   100    39    40 1   
   101    39   118 1   
   102    39   119 1   
   103    40    41 1   
   104    40   120 1   
   105    40   121 1   
   106    41    42 1   
   107    41   122 1   
   108    41   123 1   
   109    42    43 1   
   110    42   124 1   
   111    42   125 1   
   112    43    44 1   
   113    43   126 1   
   114    43   127 1   
   115    44    45 1   
   116    44   128 1   
   117    44   129 1   
   118    45    46 1   
   119    45   130 1   
   120    45   131 1   
   121    46    47 1   
   122    46   132 1   
   123    46   133 1   
   124    47    48 1   
   125    47   134 1   
   126    47   135 1   
   127    48    49 1   
   128    48   136 1   
   129    48   137 1   
   130    49    50 1   
   131    49   138 1   
   132    49   139 1   
   133    50    51 1   
   134    50   140 1   
   135    50   141 1   
   136    51    52 1   
   137    51   142 1   
   138    51   143 1   
   139    52    53 1   
   140    52   144 1   
   141    52   145 1   
   142    53    54 1   
   143    53   146 1   
   144    53   147 1   
   145    54    55 1   
   146    54   148 1   
   147    54   149 1   
   148    55    56 1   
   149    55   150 1   
   150    55   151 1   
   151    56    57 1   
   152    56   152 1   
   153    56   153 1   
   154    57   154 1   
   155    57   155 1   
   156    57   156 1   
   157   102   157 1   
@<TRIPOS>SUBSTRUCTURE
     1 3GH         1 TEMP              0 ****  ****    0 ROOT
