@<TRIPOS>MOLECULE
3GJ
   45    47     1     0     0
SMALL
abcg2


@<TRIPOS>ATOM
      1 O11          1.9110    -1.2310     0.5920 o          1 3GJ      -0.560100
      2 C10          2.0070    -0.0820     0.2120 c          1 3GJ       0.628700
      3 N9           3.2140     0.4570    -0.1560 ns         1 3GJ      -0.161000
      4 C1           4.3970    -0.2690    -0.0880 ca         1 3GJ       0.013000
      5 C6           4.9170    -0.7370     1.1180 ca         1 3GJ       0.046500
      6 CL7          4.1360    -0.3900     2.6060 cl         1 3GJ      -0.164500
      7 C5           6.1060    -1.4500     1.1250 ca         1 3GJ       0.361900
      8 N4           6.8000    -1.6940     0.0250 nb         1 3GJ      -0.656000
      9 C3           6.3400    -1.2410    -1.1300 ca         1 3GJ       0.361900
     10 C2           5.1500    -0.5390    -1.2290 ca         1 3GJ       0.046500
     11 CL8          4.5960    -0.0090    -2.7690 cl         1 3GJ      -0.164500
     12 C12          0.8440     0.8300     0.1030 ca         1 3GJ      -0.159600
     13 C17         -0.4310     0.2530     0.0400 ca         1 3GJ      -0.118000
     14 C16         -1.5550     1.0450    -0.0510 ca         1 3GJ       0.098100
     15 C15         -1.4250     2.4520    -0.0690 ca         1 3GJ       0.151100
     16 O18         -2.5680     3.1370    -0.1620 os         1 3GJ      -0.310100
     17 C19         -2.5090     4.5520    -0.1780 c3         1 3GJ       0.143900
     18 C14         -0.1610     3.0160     0.0130 ca         1 3GJ      -0.191000
     19 C13          0.9680     2.2090     0.0980 ca         1 3GJ      -0.067000
     20 O20         -2.8210     0.5890    -0.1300 os         1 3GJ      -0.313100
     21 C21         -3.0330    -0.8060    -0.0320 c3         1 3GJ       0.124300
     22 C22         -4.4980    -1.0370    -0.0530 cc         1 3GJ       0.171300
     23 C26         -5.2990    -1.7290    -0.8890 cd         1 3GJ      -0.229000
     24 C25         -6.5960    -1.5730    -0.3220 cd         1 3GJ       0.273300
     25 N24         -6.5390    -0.8420     0.7530 nc         1 3GJ      -0.354300
     26 O23         -5.2290    -0.5070     0.9310 os         1 3GJ      -0.055700
     27 C27         -7.8800    -2.1340    -0.8320 c3         1 3GJ      -0.113700
     28 C28         -9.1060    -1.7620    -0.0130 c3         1 3GJ      -0.085100
     29 H1           3.2140     1.2730    -0.7500 hn         1 3GJ       0.168000
     30 H2           6.5090    -1.8170     2.0620 h4         1 3GJ       0.039600
     31 H3           6.9250    -1.4460    -2.0180 h4         1 3GJ       0.039600
     32 H4          -0.5130    -0.8250     0.0530 ha         1 3GJ       0.141000
     33 H5          -3.5350     4.9000    -0.2600 h1         1 3GJ       0.045033
     34 H6          -2.0720     4.9490     0.7420 h1         1 3GJ       0.045033
     35 H7          -1.9380     4.9240    -1.0320 h1         1 3GJ       0.045033
     36 H8          -0.0350     4.0900     0.0190 ha         1 3GJ       0.126000
     37 H9           1.9320     2.6920     0.1880 ha         1 3GJ       0.118000
     38 H10         -2.5820    -1.3440    -0.8710 h1         1 3GJ       0.060700
     39 H11         -2.6000    -1.2020     0.8930 h1         1 3GJ       0.060700
     40 H12         -5.0230    -2.2690    -1.7790 ha         1 3GJ       0.153000
     41 H13         -8.0050    -1.8080    -1.8680 hc         1 3GJ       0.055200
     42 H14         -7.7760    -3.2210    -0.8800 hc         1 3GJ       0.055200
     43 H15         -9.0210    -2.1090     1.0160 hc         1 3GJ       0.042367
     44 H16         -9.2620    -0.6840     0.0090 hc         1 3GJ       0.042367
     45 H17         -9.9940    -2.2190    -0.4470 hc         1 3GJ       0.042367
@<TRIPOS>BOND
     1     1     2 2   
     2     2     3 1   
     3     2    12 1   
     4     3     4 1   
     5     3    29 1   
     6     4     5 ar  
     7     4    10 ar  
     8     5     6 1   
     9     5     7 ar  
    10     7     8 ar  
    11     7    30 1   
    12     8     9 ar  
    13     9    10 ar  
    14     9    31 1   
    15    10    11 1   
    16    12    13 ar  
    17    12    19 ar  
    18    13    14 ar  
    19    13    32 1   
    20    14    15 ar  
    21    14    20 1   
    22    15    16 1   
    23    15    18 ar  
    24    16    17 1   
    25    17    33 1   
    26    17    34 1   
    27    17    35 1   
    28    18    19 ar  
    29    18    36 1   
    30    19    37 1   
    31    20    21 1   
    32    21    22 1   
    33    21    38 1   
    34    21    39 1   
    35    22    23 2   
    36    22    26 1   
    37    23    24 1   
    38    23    40 1   
    39    24    25 2   
    40    24    27 1   
    41    25    26 1   
    42    27    28 1   
    43    27    41 1   
    44    27    42 1   
    45    28    43 1   
    46    28    44 1   
    47    28    45 1   
@<TRIPOS>SUBSTRUCTURE
     1 3GJ         1 TEMP              0 ****  ****    0 ROOT
