@<TRIPOS>MOLECULE
3GJ
   45    47     1     0     0
SMALL
No Charge or Current Charge


@<TRIPOS>ATOM
      1 O11          2.0120    -1.5330     0.2140 o          1 3GJ      -0.560100
      2 C10          2.0580    -0.3210     0.0310 c          1 3GJ       0.628700
      3 N9           3.2600     0.3550    -0.1010 ns         1 3GJ      -0.161000
      4 C1           4.5880    -0.1290     0.0200 ca         1 3GJ       0.013000
      5 C6           5.0530    -0.8040     1.1750 ca         1 3GJ       0.046500
      6 Cl7          4.0340    -1.0340     2.6010 cl         1 3GJ      -0.164500
      7 C5           6.3910    -1.2500     1.2110 ca         1 3GJ       0.361900
      8 N4           7.2720    -1.0590     0.1960 nb         1 3GJ      -0.656000
      9 C3           6.8260    -0.3940    -0.8980 ca         1 3GJ       0.361900
     10 C2           5.5080     0.0920    -1.0250 ca         1 3GJ       0.046500
     11 Cl8          5.0220     0.9490    -2.4920 cl         1 3GJ      -0.164500
     12 C12          0.7950     0.5160    -0.0950 ca         1 3GJ      -0.159600
     13 C17         -0.4700    -0.1090     0.0220 ca         1 3GJ      -0.118000
     14 C16         -1.6650     0.6380    -0.0890 ca         1 3GJ       0.098100
     15 C15         -1.6010     2.0310    -0.3190 ca         1 3GJ       0.151100
     16 O18         -2.7860     2.7410    -0.4240 os         1 3GJ      -0.310100
     17 C19         -2.8190     4.1600    -0.6590 c3         1 3GJ       0.143900
     18 C14         -0.3430     2.6590    -0.4360 ca         1 3GJ      -0.191000
     19 C13          0.8410     1.9120    -0.3250 ca         1 3GJ      -0.067000
     20 O20         -2.9130     0.0440     0.0220 os         1 3GJ      -0.313100
     21 C21         -3.0860    -1.3670     0.2520 c3         1 3GJ       0.124300
     22 C22         -4.5600    -1.6670     0.3090 cc         1 3GJ       0.171300
     23 C26         -5.5780    -1.3640    -0.5390 cd         1 3GJ      -0.229000
     24 C25         -6.7400    -1.9050     0.0340 cd         1 3GJ       0.273300
     25 N24         -6.4980    -2.5230     1.1780 nc         1 3GJ      -0.354300
     26 O23         -5.0720    -2.3750     1.3700 os         1 3GJ      -0.055700
     27 C27         -8.1340    -1.8250    -0.5300 c3         1 3GJ      -0.113700
     28 C28         -8.8310    -0.4890    -0.2060 c3         1 3GJ      -0.085100
     29 H1           3.1840     1.3350    -0.3350 hn         1 3GJ       0.168000
     30 H2           6.7760    -1.7650     2.0900 h4         1 3GJ       0.039600
     31 H3           7.5490    -0.2430    -1.6990 h4         1 3GJ       0.039600
     32 H4          -0.5090    -1.1800     0.2000 ha         1 3GJ       0.141000
     33 H5          -3.8570     4.5130    -0.7060 h1         1 3GJ       0.045033
     34 H6          -2.3130     4.7010     0.1510 h1         1 3GJ       0.045033
     35 H7          -2.3310     4.4100    -1.6090 h1         1 3GJ       0.045033
     36 H8          -0.2620     3.7280    -0.6120 ha         1 3GJ       0.126000
     37 H9           1.7870     2.4390    -0.4200 ha         1 3GJ       0.118000
     38 H10         -2.6380    -1.9520    -0.5600 h1         1 3GJ       0.060700
     39 H11         -2.6200    -1.6670     1.1990 h1         1 3GJ       0.060700
     40 H12         -5.5060    -0.8110    -1.4670 ha         1 3GJ       0.153000
     41 H13         -8.0970    -1.9520    -1.6180 hc         1 3GJ       0.055200
     42 H14         -8.7470    -2.6500    -0.1450 hc         1 3GJ       0.055200
     43 H15         -8.9170    -0.3500     0.8790 hc         1 3GJ       0.042367
     44 H16         -8.2640     0.3540    -0.6190 hc         1 3GJ       0.042367
     45 H17         -9.8400    -0.4670    -0.6360 hc         1 3GJ       0.042367
@<TRIPOS>BOND
     1     1     2 2   
     2     2     3 1   
     3     2    12 1   
     4     3     4 1   
     5     3    29 1   
     6     4     5 ar  
     7     4    10 ar  
     8     5     6 1   
     9     5     7 ar  
    10     7     8 ar  
    11     7    30 1   
    12     8     9 ar  
    13     9    10 ar  
    14     9    31 1   
    15    10    11 1   
    16    12    13 ar  
    17    12    19 ar  
    18    13    14 ar  
    19    13    32 1   
    20    14    15 ar  
    21    14    20 1   
    22    15    16 1   
    23    15    18 ar  
    24    16    17 1   
    25    17    33 1   
    26    17    34 1   
    27    17    35 1   
    28    18    19 ar  
    29    18    36 1   
    30    19    37 1   
    31    20    21 1   
    32    21    22 1   
    33    21    38 1   
    34    21    39 1   
    35    22    23 2   
    36    22    26 1   
    37    23    24 1   
    38    23    40 1   
    39    24    25 2   
    40    24    27 1   
    41    25    26 1   
    42    27    28 1   
    43    27    41 1   
    44    27    42 1   
    45    28    43 1   
    46    28    44 1   
    47    28    45 1   
@<TRIPOS>SUBSTRUCTURE
     1 3GJ         1 TEMP              0 ****  ****    0 ROOT
