@<TRIPOS>MOLECULE
3GK
   37    40     1     0     0
SMALL
No Charge or Current Charge


@<TRIPOS>ATOM
      1 N1           7.3670    -0.5880    -0.6510 na         1 3GK       0.110600
      2 C6           4.2760     0.9110     0.0240 ca         1 3GK      -0.101500
      3 C7           2.9720     0.3560     0.0050 ca         1 3GK      -0.096000
      4 C8           1.8380     1.1430     0.3130 ca         1 3GK      -0.023000
      5 C9           2.0160     2.5010     0.6290 ca         1 3GK      -0.155000
      6 C13         -0.0200    -0.6410     0.2350 c          1 3GK       0.624700
      7 C17         -3.5960    -1.9950     0.2670 ca         1 3GK      -0.109200
      8 C18         -4.4030    -0.8660     0.1060 ca         1 3GK      -0.031000
      9 C22         -2.7940    -4.0390     0.5450 cc         1 3GK       0.432700
     10 F27         -5.8870     1.5140     0.0740 f          1 3GK      -0.112667
     11 F25         -4.4920     2.1190    -1.4780 f          1 3GK      -0.112667
     12 F26         -4.1270     2.6700     0.5930 f          1 3GK      -0.112667
     13 C19         -3.7610     0.3860    -0.0130 ca         1 3GK      -0.196300
     14 N23         -3.9630    -3.2990     0.4090 na         1 3GK      -0.307600
     15 N21         -1.7130    -3.2350     0.4910 nd         1 3GK      -0.545100
     16 C16         -2.2300    -1.9490     0.3120 ca         1 3GK       0.133400
     17 C20         -2.3430     0.4490     0.0260 ca         1 3GK      -0.067000
     18 C15         -1.5410    -0.7190     0.1930 ca         1 3GK      -0.097600
     19 O14          0.6950    -1.6370     0.2030 o          1 3GK      -0.532100
     20 N12          0.5040     0.6460     0.3050 ns         1 3GK      -0.148000
     21 C10          3.2990     3.0660     0.6520 ca         1 3GK      -0.090000
     22 C11          4.4210     2.2780     0.3550 ca         1 3GK      -0.106000
     23 C3           5.4620     0.0890    -0.2980 cc         1 3GK       0.556500
     24 N2           6.6930     0.5540    -0.2960 nd         1 3GK      -0.521800
     25 N4           5.3410    -1.2320    -0.6220 nc         1 3GK      -0.369000
     26 N5           6.5470    -1.6690    -0.8480 nd         1 3GK      -0.172800
     27 H1           8.3800    -0.6410    -0.7600 hn         1 3GK       0.405000
     28 H2           2.8510    -0.6890    -0.2640 ha         1 3GK       0.170000
     29 H3           1.1550     3.1250     0.8620 ha         1 3GK       0.111000
     30 H4          -5.4860    -0.9630     0.0730 ha         1 3GK       0.138000
     31 H5          -2.7950    -5.1140     0.6760 h5         1 3GK       0.070800
     32 H6          -4.9020    -3.6770     0.4180 hn         1 3GK       0.365000
     33 H8          -1.8780     1.4250    -0.0900 ha         1 3GK       0.132000
     34 H9          -0.1940     1.3730     0.3690 hn         1 3GK       0.152000
     35 H10          3.4250     4.1170     0.9020 ha         1 3GK       0.116000
     36 H11          5.4060     2.7400     0.3800 ha         1 3GK       0.129000
     37 C24         -4.5730     1.6730    -0.2040 c3         1 3GK       0.359300
@<TRIPOS>BOND
     1     1    24 1   
     2     1    26 1   
     3     1    27 1   
     4     2     3 ar  
     5     2    22 ar  
     6     2    23 1   
     7     3     4 ar  
     8     3    28 1   
     9     4     5 ar  
    10     4    20 1   
    11     5    21 ar  
    12     5    29 1   
    13     6    18 1   
    14     6    19 2   
    15     6    20 1   
    16     7     8 ar  
    17     7    14 1   
    18     7    16 ar  
    19     8    13 ar  
    20     8    30 1   
    21     9    14 1   
    22     9    15 2   
    23     9    31 1   
    24    10    37 1   
    25    11    37 1   
    26    12    37 1   
    27    13    17 ar  
    28    13    37 1   
    29    14    32 1   
    30    15    16 1   
    31    16    18 ar  
    32    17    18 ar  
    33    17    33 1   
    34    20    34 1   
    35    21    22 ar  
    36    21    35 1   
    37    22    36 1   
    38    23    24 2   
    39    23    25 1   
    40    25    26 2   
@<TRIPOS>SUBSTRUCTURE
     1 3GK         1 TEMP              0 ****  ****    0 ROOT
