@<TRIPOS>MOLECULE
3GK
   37    40     1     0     0
SMALL
bcc


@<TRIPOS>ATOM
      1 N1           7.1650    -0.5420    -0.9140 na         1 3GK       0.160900
      2 C6           4.1710     0.8880     0.0680 ca         1 3GK      -0.101500
      3 C7           2.8820     0.3660    -0.0330 ca         1 3GK      -0.114000
      4 C8           1.8040     1.0870     0.4740 ca         1 3GK       0.069600
      5 C9           2.0310     2.3300     1.0700 ca         1 3GK      -0.173000
      6 C13         -0.0230    -0.5320    -0.0080 c          1 3GK       0.691700
      7 C17         -3.5380    -1.9050     0.3980 ca         1 3GK      -0.109200
      8 C18         -4.3580    -0.8370     0.0690 ca         1 3GK      -0.049000
      9 C22         -2.6360    -3.7950     1.0110 cc         1 3GK       0.432700
     10 F27         -5.8290     1.3720    -0.5200 f          1 3GK      -0.233967
     11 F25         -4.3160     1.8570    -1.9710 f          1 3GK      -0.233967
     12 F26         -4.1710     2.6290     0.0280 f          1 3GK      -0.233967
     13 C19         -3.7230     0.3410    -0.2780 ca         1 3GK      -0.196300
     14 N23         -3.8180    -3.1780     0.8020 na         1 3GK      -0.257300
     15 N21         -1.6020    -3.0310     0.7820 nd         1 3GK      -0.545100
     16 C16         -2.1340    -1.8330     0.3920 ca         1 3GK       0.133400
     17 C20         -2.3230     0.4470    -0.2800 ca         1 3GK      -0.085000
     18 C15         -1.5110    -0.6230     0.0530 ca         1 3GK      -0.097600
     19 O14          0.6530    -1.4550    -0.4200 o          1 3GK      -0.532100
     20 N12          0.4770     0.6520     0.4290 ns         1 3GK      -0.474100
     21 C10          3.3140     2.8360     1.1660 ca         1 3GK      -0.108000
     22 C11          4.3940     2.1220     0.6700 ca         1 3GK      -0.124000
     23 C3           5.2930     0.1130    -0.4560 cc         1 3GK       0.556500
     24 N2           6.5640     0.4260    -0.2810 nd         1 3GK      -0.521800
     25 N4           5.1690    -1.0160    -1.1800 nc         1 3GK      -0.369000
     26 N5           6.3680    -1.4100    -1.4540 nd         1 3GK      -0.172800
     27 H1           8.1720    -0.6160    -0.9800 hn         1 3GK       0.354700
     28 H2           2.7310    -0.5910    -0.5040 ha         1 3GK       0.188000
     29 H3           1.1970     2.8990     1.4650 ha         1 3GK       0.129000
     30 H4          -5.4350    -0.9350     0.0820 ha         1 3GK       0.156000
     31 H5          -2.5880    -4.8220     1.3390 h5         1 3GK       0.070800
     32 H6          -4.7310    -3.5980     0.8940 hn         1 3GK       0.314700
     33 H8          -1.8690     1.3830    -0.5800 ha         1 3GK       0.150000
     34 H9          -0.1820     1.2860     0.8560 hn         1 3GK       0.318500
     35 H10          3.4740     3.7980     1.6340 ha         1 3GK       0.134000
     36 H11          5.3940     2.5250     0.7500 ha         1 3GK       0.147000
     37 C24         -4.5140     1.5440    -0.6810 c3         1 3GK       0.723200
@<TRIPOS>BOND
     1     1    24 1   
     2     1    26 1   
     3     1    27 1   
     4     2     3 ar  
     5     2    22 ar  
     6     2    23 1   
     7     3     4 ar  
     8     3    28 1   
     9     4     5 ar  
    10     4    20 1   
    11     5    21 ar  
    12     5    29 1   
    13     6    18 1   
    14     6    19 2   
    15     6    20 1   
    16     7     8 ar  
    17     7    14 1   
    18     7    16 ar  
    19     8    13 ar  
    20     8    30 1   
    21     9    14 1   
    22     9    15 2   
    23     9    31 1   
    24    10    37 1   
    25    11    37 1   
    26    12    37 1   
    27    13    17 ar  
    28    13    37 1   
    29    14    32 1   
    30    15    16 1   
    31    16    18 ar  
    32    17    18 ar  
    33    17    33 1   
    34    20    34 1   
    35    21    22 ar  
    36    21    35 1   
    37    22    36 1   
    38    23    24 2   
    39    23    25 1   
    40    25    26 2   
@<TRIPOS>SUBSTRUCTURE
     1 3GK         1 TEMP              0 ****  ****    0 ROOT
