@<TRIPOS>MOLECULE
3GL
   18    17     1     0     0
SMALL
bcc


@<TRIPOS>ATOM
      1 N          127.6460    83.5750   112.3470 n8         1 3GL      -0.892800
      2 CA         128.4740    84.4240   113.1960 c3         1 3GL       0.032500
      3 C          128.8380    83.6950   114.5170 c          1 3GL       0.924600
      4 CB         127.7740    85.7570   113.4620 c3         1 3GL      -0.038400
      5 CG         127.3560    86.5010   112.1970 c3         1 3GL      -0.002900
      6 OH         128.4560    86.7370   111.3470 oh         1 3GL      -0.662800
      7 CD         126.6860    87.8530   112.5340 c          1 3GL       0.899600
      8 OE1        127.2370    88.8500   112.0090 o          1 3GL      -0.852300
      9 OE2        125.6900    87.8440   113.2740 o          1 3GL      -0.852300
     10 O          129.3010    84.4000   115.4340 o          1 3GL      -0.862800
     11 OXT        128.6770    82.4560   114.5440 o          1 3GL      -0.862800
     12 HN1        127.8290    83.7710   111.3730 hn         1 3GL       0.316800
     13 HN2        127.9210    82.6150   112.5130 hn         1 3GL       0.316800
     14 HA         129.4420    84.6520   112.7190 h1         1 3GL       0.001700
     15 HB1C       126.8770    85.5750   114.0610 hc         1 3GL       0.045200
     16 HB2C       128.4330    86.3950   114.0560 hc         1 3GL       0.045200
     17 HG         126.6080    85.8870   111.6720 h1         1 3GL       0.025700
     18 HH         128.4340    87.7120   111.2720 ho         1 3GL       0.419000
@<TRIPOS>BOND
     1     1     2 1   
     2     1    12 1   
     3     1    13 1   
     4     2     3 1   
     5     2     4 1   
     6     2    14 1   
     7     3    10 1   
     8     3    11 1   
     9     4     5 1   
    10     4    15 1   
    11     4    16 1   
    12     5     6 1   
    13     5     7 1   
    14     5    17 1   
    15     6    18 1   
    16     7     8 1   
    17     7     9 1   
@<TRIPOS>SUBSTRUCTURE
     1 3GL         1 TEMP              0 ****  ****    0 ROOT
