@<TRIPOS>MOLECULE
3GL
   18    17     1     0     0
SMALL
No Charge or Current Charge


@<TRIPOS>ATOM
      1 N          127.2820    83.4340   112.6110 n8         1 3GL      -1.003200
      2 CA         128.3440    84.3070   113.2340 c3         1 3GL       0.032500
      3 C          129.0280    83.7400   114.5560 c          1 3GL       0.714000
      4 CB         127.8180    85.7620   113.4340 c3         1 3GL      -0.038400
      5 CG         127.4550    86.5310   112.1320 c3         1 3GL       0.020300
      6 OH         128.6540    86.7630   111.3400 oh         1 3GL      -0.725000
      7 CD         126.7160    87.8790   112.4750 c          1 3GL       0.689000
      8 OE1        127.3690    88.9150   112.4180 o          1 3GL      -0.747000
      9 OE2        125.5060    87.8610   112.6530 o          1 3GL      -0.747000
     10 O          128.5860    84.0660   115.6520 o          1 3GL      -0.757500
     11 OXT        129.9820    82.9830   114.4310 o          1 3GL      -0.757500
     12 HN1        127.0130    83.8390   111.7080 hn         1 3GL       0.372000
     13 HN2        127.7010    82.5300   112.3620 hn         1 3GL       0.372000
     14 HA         129.1510    84.3610   112.4910 h1         1 3GL       0.001700
     15 HB1C       126.9360    85.7300   114.0840 hc         1 3GL       0.045200
     16 HB2C       128.5760    86.3410   113.9760 hc         1 3GL       0.045200
     17 HG         126.7460    85.9240   111.5530 h1         1 3GL       0.025700
     18 HH         128.8170    87.7340   111.4180 ho         1 3GL       0.458000
@<TRIPOS>BOND
     1     1     2 1   
     2     1    12 1   
     3     1    13 1   
     4     2     3 1   
     5     2     4 1   
     6     2    14 1   
     7     3    10 1   
     8     3    11 1   
     9     4     5 1   
    10     4    15 1   
    11     4    16 1   
    12     5     6 1   
    13     5     7 1   
    14     5    17 1   
    15     6    18 1   
    16     7     8 1   
    17     7     9 1   
@<TRIPOS>SUBSTRUCTURE
     1 3GL         1 TEMP              0 ****  ****    0 ROOT
