@<TRIPOS>MOLECULE
3GM
   63    66     1     0     0
SMALL
abcg2


@<TRIPOS>ATOM
      1 C1           0.3010    -4.5420    -0.5130 ca         1 3GM      -0.131000
      2 C2          -0.3650    -3.5250    -1.1920 ca         1 3GM      -0.111000
      3 C3           1.5180    -4.2940     0.1130 ca         1 3GM      -0.117000
      4 C4           0.1720    -2.2440    -1.2460 ca         1 3GM      -0.057000
      5 C5          -0.6170    -0.4220     1.6370 ca         1 3GM      -0.126000
      6 C6          -2.0010    -0.4310     1.6730 ca         1 3GM      -0.147000
      7 C7          -0.6400     0.9950    -0.3000 ca         1 3GM      -0.108600
      8 C8           2.0530    -3.0160     0.0540 ca         1 3GM      -0.113300
      9 C9           1.3810    -1.9970    -0.6150 ca         1 3GM      -0.052300
     10 C10          0.0800     0.2780     0.6560 ca         1 3GM      -0.094300
     11 C11         -2.7190     0.2740     0.7180 ca         1 3GM       0.056100
     12 C12         -2.0310     0.9890    -0.2630 ca         1 3GM       0.060100
     13 C15         -8.4110    -0.1880     0.6830 c          1 3GM       0.716000
     14 C16          3.3450    -2.5010     0.6220 c5         1 3GM      -0.039100
     15 C17         -4.0600     1.9450    -0.9130 c6         1 3GM       0.116600
     16 C18          2.1340    -0.7010    -0.5080 c5         1 3GM      -0.031400
     17 C19          3.5620    -1.2190    -0.1950 c5         1 3GM       0.103700
     18 C20         -4.7360     0.6840    -0.4130 c6         1 3GM       0.126300
     19 C21          1.5810     0.2020     0.6180 c3         1 3GM       0.004900
     20 C22          5.9940     1.5590     0.6650 c3         1 3GM      -0.161400
     21 C24         -6.2000     0.9050    -0.0890 c3         1 3GM      -0.047400
     22 C25          7.4680     1.4680     0.2750 c3         1 3GM      -0.069400
     23 C26          8.3310     2.4240     1.0850 c3         1 3GM       0.145800
     24 N27          4.4420    -0.2860     0.4610 ns         1 3GM      -0.493900
     25 N28          9.7290     2.3100     0.6950 n8         1 3GM      -0.994200
     26 O29          0.0890     1.2120    -2.5220 o          1 3GM      -0.721000
     27 O30         -9.0280    -1.2380     0.9600 o          1 3GM      -0.752000
     28 O31          0.5160     2.8810    -1.1020 o          1 3GM      -0.721000
     29 O32          5.0950     0.7810    -1.4130 o          1 3GM      -0.590100
     30 O33         -8.8920     0.9610     0.6350 o          1 3GM      -0.752000
     31 O34         -2.6960     1.7050    -1.2090 os         1 3GM      -0.308100
     32 O35         -4.0740     0.2450     0.7700 os         1 3GM      -0.337100
     33 H1          -0.1260    -5.5360    -0.4820 ha         1 3GM       0.092000
     34 H2          -1.3070    -3.7360    -1.6830 ha         1 3GM       0.110000
     35 H3           2.0380    -5.0910     0.6300 ha         1 3GM       0.089000
     36 H4          -0.3350    -1.4480    -1.7770 ha         1 3GM       0.167000
     37 H5          -0.0680    -0.9860     2.3820 ha         1 3GM       0.082000
     38 H6          -2.5340    -0.9820     2.4390 ha         1 3GM       0.106000
     39 H161         3.2380    -2.2790     1.6910 hc         1 3GM       0.037200
     40 H162         4.1750    -3.2020     0.5250 hc         1 3GM       0.037200
     41 H18          2.1180    -0.1460    -1.4460 hc         1 3GM       0.122700
     42 H211         2.0060     1.2000     0.5020 hc         1 3GM       0.036700
     43 H212         1.9280    -0.1730     1.5850 hc         1 3GM       0.036700
     44 H221         5.6410     2.5850     0.5250 hc         1 3GM       0.056200
     45 H222         5.8720     1.3260     1.7250 hc         1 3GM       0.056200
     46 H27          4.4900    -0.3040     1.4670 hn         1 3GM       0.300500
     47 H231        -6.4280    -0.7350     1.2960 hc         1 3GM       0.026200
     48 H232        -6.7900    -1.1480    -0.3560 hc         1 3GM       0.026200
     49 H19          4.0220    -1.4980    -1.1460 h1         1 3GM       0.071700
     50 H171        -4.5300     2.2850    -1.8350 h1         1 3GM       0.051200
     51 H172        -4.1540     2.7420    -0.1650 h1         1 3GM       0.051200
     52 H20         -4.6380    -0.0950    -1.1830 h1         1 3GM       0.046700
     53 H241        -6.2900     1.7010     0.6550 hc         1 3GM       0.046200
     54 H242        -6.6850     1.2750    -0.9960 hc         1 3GM       0.046200
     55 H251         7.8190     0.4430     0.4280 hc         1 3GM       0.055700
     56 H252         7.5870     1.6900    -0.7870 hc         1 3GM       0.055700
     57 H261         8.0050     3.4490     0.8870 h1         1 3GM       0.025700
     58 H262         8.1560     2.2460     2.1560 h1         1 3GM       0.025700
     59 H281        10.2770     2.9940     1.2000 hn         1 3GM       0.384000
     60 H282        10.0850     1.4070     0.9870 hn         1 3GM       0.384000
     61 C23         -6.9090    -0.3540     0.3890 c3         1 3GM      -0.203400
     62 C14          5.1350     0.6600    -0.1960 c          1 3GM       0.601100
     63 C13          0.0510     1.7700    -1.4100 c          1 3GM       0.727600
@<TRIPOS>BOND
     1     1     2 ar  
     2     1     3 ar  
     3     1    33 1   
     4     2     4 ar  
     5     2    34 1   
     6     3     8 ar  
     7     3    35 1   
     8     4     9 ar  
     9     4    36 1   
    10     5     6 ar  
    11     5    10 ar  
    12     5    37 1   
    13     6    11 ar  
    14     6    38 1   
    15     7    10 ar  
    16     7    12 ar  
    17     7    63 1   
    18     8     9 ar  
    19     8    14 1   
    20     9    16 1   
    21    10    19 1   
    22    11    12 ar  
    23    11    32 1   
    24    12    31 1   
    25    13    27 1   
    26    13    30 1   
    27    13    61 1   
    28    14    17 1   
    29    14    39 1   
    30    14    40 1   
    31    15    18 1   
    32    15    31 1   
    33    15    50 1   
    34    15    51 1   
    35    16    17 1   
    36    16    19 1   
    37    16    41 1   
    38    17    24 1   
    39    17    49 1   
    40    18    21 1   
    41    18    32 1   
    42    18    52 1   
    43    19    42 1   
    44    19    43 1   
    45    20    22 1   
    46    20    44 1   
    47    20    45 1   
    48    20    62 1   
    49    21    53 1   
    50    21    54 1   
    51    21    61 1   
    52    22    23 1   
    53    22    55 1   
    54    22    56 1   
    55    23    25 1   
    56    23    57 1   
    57    23    58 1   
    58    24    46 1   
    59    24    62 1   
    60    25    59 1   
    61    25    60 1   
    62    26    63 1   
    63    28    63 1   
    64    29    62 2   
    65    47    61 1   
    66    48    61 1   
@<TRIPOS>SUBSTRUCTURE
     1 3GM         1 TEMP              0 ****  ****    0 ROOT
