@<TRIPOS>MOLECULE
3GM
   63    66     1     0     0
SMALL
No Charge or Current Charge


@<TRIPOS>ATOM
      1 C1           0.7760    -5.1050    -0.1730 ca         1 3GM      -0.131000
      2 C2          -0.1120    -4.1660    -0.7380 ca         1 3GM      -0.111000
      3 C3           2.0610    -4.7040     0.2400 ca         1 3GM      -0.117000
      4 C4           0.2820    -2.8220    -0.8900 ca         1 3GM      -0.057000
      5 C5          -0.6620    -0.7310     1.4940 ca         1 3GM      -0.126000
      6 C6          -2.0610    -0.6280     1.5170 ca         1 3GM      -0.147000
      7 C7          -0.5480     0.9590    -0.2710 ca         1 3GM      -0.108600
      8 C8           2.4370    -3.3610     0.0800 ca         1 3GM      -0.113300
      9 C9           1.5660    -2.4360    -0.4670 ca         1 3GM      -0.052300
     10 C10          0.1050     0.0480     0.6020 ca         1 3GM      -0.094300
     11 C11         -2.7110     0.2590     0.6490 ca         1 3GM       0.056100
     12 C12         -1.9540     1.0700    -0.2350 ca         1 3GM       0.060100
     13 C15         -8.5260     0.3780     0.5400 c          1 3GM       0.716000
     14 C16          3.7610    -2.7460     0.4480 c5         1 3GM      -0.039100
     15 C17         -3.9700     2.2900    -0.7750 c6         1 3GM       0.116600
     16 C18          2.1660    -1.0480    -0.5320 c5         1 3GM      -0.031400
     17 C19          3.7020    -1.4610    -0.4630 c5         1 3GM       0.103700
     18 C20         -4.7440     0.9960    -0.4300 c6         1 3GM       0.126300
     19 C21          1.6260    -0.1220     0.6000 c3         1 3GM       0.004900
     20 C22          5.6230     1.7180     0.4400 c3         1 3GM      -0.161400
     21 C24         -6.2230     1.2640    -0.0300 c3         1 3GM      -0.047400
     22 C25          7.1540     1.6910     0.2170 c3         1 3GM      -0.069400
     23 C26          7.9030     2.7360     1.0690 c3         1 3GM       0.145800
     24 N27          4.4390    -0.4240     0.2750 ns         1 3GM      -0.493900
     25 N28          9.3570     2.6870     0.8330 n8         1 3GM      -0.994200
     26 O29          0.3460     1.4440    -2.3850 o          1 3GM      -0.721000
     27 O30         -9.3020     0.4950    -0.3950 o          1 3GM      -0.752000
     28 O31          0.7120     2.8660    -0.8030 o          1 3GM      -0.721000
     29 O32          4.7530     0.8160    -1.6270 o          1 3GM      -0.590100
     30 O33         -8.8300     0.6040     1.7020 o          1 3GM      -0.752000
     31 O34         -2.5930     1.9740    -1.0640 os         1 3GM      -0.308100
     32 O35         -4.0900     0.3290     0.6720 os         1 3GM      -0.337100
     33 H1           0.4680    -6.1420    -0.0570 ha         1 3GM       0.092000
     34 H2          -1.1040    -4.4790    -1.0560 ha         1 3GM       0.110000
     35 H3           2.7520    -5.4240     0.6730 ha         1 3GM       0.089000
     36 H4          -0.4010    -2.0920    -1.3210 ha         1 3GM       0.167000
     37 H5          -0.1710    -1.4330     2.1640 ha         1 3GM       0.082000
     38 H6          -2.6410    -1.2440     2.1990 ha         1 3GM       0.106000
     39 H161         3.7990    -2.5130     1.5190 hc         1 3GM       0.037200
     40 H162         4.6190    -3.3840     0.2080 hc         1 3GM       0.037200
     41 H18          1.9500    -0.5570    -1.4870 hc         1 3GM       0.122700
     42 H211         2.1000     0.8640     0.5310 hc         1 3GM       0.036700
     43 H212         1.9430    -0.5220     1.5720 hc         1 3GM       0.036700
     44 H221         5.2490     2.7110     0.1640 hc         1 3GM       0.056200
     45 H222         5.4230     1.5280     1.5010 hc         1 3GM       0.056200
     46 H27          4.6170    -0.4560     1.2710 hn         1 3GM       0.300500
     47 H231        -6.6170    -0.5060     1.0980 hc         1 3GM       0.026200
     48 H232        -7.0200    -0.5980    -0.6920 hc         1 3GM       0.026200
     49 H19          4.1070    -1.6740    -1.4620 h1         1 3GM       0.071700
     50 H171        -4.4170     2.7910    -1.6460 h1         1 3GM       0.051200
     51 H172        -4.0050     2.9820     0.0790 h1         1 3GM       0.051200
     52 H20         -4.7240     0.3290    -1.3040 h1         1 3GM       0.046700
     53 H241        -6.2530     1.9020     0.8620 hc         1 3GM       0.046200
     54 H242        -6.7060     1.8390    -0.8300 hc         1 3GM       0.046200
     55 H251         7.5330     0.6890     0.4540 hc         1 3GM       0.055700
     56 H252         7.3670     1.8720    -0.8450 hc         1 3GM       0.055700
     57 H261         7.5410     3.7440     0.8200 h1         1 3GM       0.025700
     58 H262         7.7120     2.5520     2.1350 h1         1 3GM       0.025700
     59 H281         9.8200     3.3590     1.4570 hn         1 3GM       0.384000
     60 H282         9.7160     1.7780     1.1490 hn         1 3GM       0.384000
     61 C23         -7.0700    -0.0090     0.2320 c3         1 3GM      -0.203400
     62 C14          4.9110     0.6710    -0.4230 c          1 3GM       0.601100
     63 C13          0.2270     1.8250    -1.2280 c          1 3GM       0.727600
@<TRIPOS>BOND
     1     1     2 ar  
     2     1     3 ar  
     3     1    33 1   
     4     2     4 ar  
     5     2    34 1   
     6     3     8 ar  
     7     3    35 1   
     8     4     9 ar  
     9     4    36 1   
    10     5     6 ar  
    11     5    10 ar  
    12     5    37 1   
    13     6    11 ar  
    14     6    38 1   
    15     7    10 ar  
    16     7    12 ar  
    17     7    63 1   
    18     8     9 ar  
    19     8    14 1   
    20     9    16 1   
    21    10    19 1   
    22    11    12 ar  
    23    11    32 1   
    24    12    31 1   
    25    13    27 1   
    26    13    30 1   
    27    13    61 1   
    28    14    17 1   
    29    14    39 1   
    30    14    40 1   
    31    15    18 1   
    32    15    31 1   
    33    15    50 1   
    34    15    51 1   
    35    16    17 1   
    36    16    19 1   
    37    16    41 1   
    38    17    24 1   
    39    17    49 1   
    40    18    21 1   
    41    18    32 1   
    42    18    52 1   
    43    19    42 1   
    44    19    43 1   
    45    20    22 1   
    46    20    44 1   
    47    20    45 1   
    48    20    62 1   
    49    21    53 1   
    50    21    54 1   
    51    21    61 1   
    52    22    23 1   
    53    22    55 1   
    54    22    56 1   
    55    23    25 1   
    56    23    57 1   
    57    23    58 1   
    58    24    46 1   
    59    24    62 1   
    60    25    59 1   
    61    25    60 1   
    62    26    63 1   
    63    28    63 1   
    64    29    62 2   
    65    47    61 1   
    66    48    61 1   
@<TRIPOS>SUBSTRUCTURE
     1 3GM         1 TEMP              0 ****  ****    0 ROOT
