@<TRIPOS>MOLECULE
3GN
   34    36     1     0     0
SMALL
abcg2


@<TRIPOS>ATOM
      1 C4          -1.1440     0.2670     0.0170 ca         1 3GN      -0.037200
      2 C5          -2.4630    -0.1920    -0.0620 ca         1 3GN      -0.155600
      3 C6          -3.4390     0.7880    -0.2220 ca         1 3GN      -0.067000
      4 C8           1.0220     0.5860     0.1890 cc         1 3GN       0.429800
      5 C10         -2.7310    -1.6530     0.0310 c          1 3GN       0.629700
      6 C13          2.4700     0.2240     0.3500 c5         1 3GN       0.160900
      7 C15          3.4950    -1.6780    -0.6610 c5         1 3GN       0.152800
      8 C17          3.2840     0.6540    -0.8970 c5         1 3GN      -0.080400
      9 C1          -3.1220     2.1460    -0.2990 ca         1 3GN      -0.154000
     10 C2          -1.8120     2.5870    -0.2170 ca         1 3GN      -0.024000
     11 C3          -0.8110     1.6350    -0.0570 ca         1 3GN       0.055400
     12 N7           0.5480     1.7960     0.0540 nd         1 3GN      -0.592100
     13 N9           0.0560    -0.3620     0.1720 na         1 3GN      -0.265600
     14 N11         -4.0060    -2.0580    -0.0350 nt         1 3GN      -0.600000
     15 O12         -1.8020    -2.4450     0.1660 o          1 3GN      -0.636100
     16 N14          2.6080    -1.2380     0.4170 n7         1 3GN      -0.879400
     17 C16          4.3210    -0.4530    -1.0340 c5         1 3GN      -0.113400
     18 C18          3.0150     0.8900     1.6140 c3         1 3GN      -0.103100
     19 H6          -4.4850     0.5200    -0.2940 ha         1 3GN       0.101000
     20 H15          4.0920    -2.5310    -0.3370 h1         1 3GN       0.053200
     21 H15A         2.9070    -2.0070    -1.5240 h1         1 3GN       0.053200
     22 H17          2.6470     0.6760    -1.7850 hc         1 3GN       0.064200
     23 H17A         3.7070     1.6510    -0.7760 hc         1 3GN       0.064200
     24 H1          -3.9220     2.8630    -0.4230 ha         1 3GN       0.115000
     25 H2          -1.5710     3.6410    -0.2750 ha         1 3GN       0.128000
     26 HN9          0.2250    -1.3520     0.2570 hn         1 3GN       0.401000
     27 HN11        -4.7860    -1.4350    -0.1410 hn         1 3GN       0.315500
     28 HN1A        -4.2150    -3.0410     0.0270 hn         1 3GN       0.315500
     29 HN14         2.9940    -1.5040     1.3120 hn         1 3GN       0.420000
     30 H16          5.1370    -0.3110    -0.3210 hc         1 3GN       0.051200
     31 H16A         4.7550    -0.5090    -2.0340 hc         1 3GN       0.051200
     32 H18          2.5350     0.4860     2.5080 hc         1 3GN       0.048700
     33 H18A         4.0890     0.7190     1.6980 hc         1 3GN       0.048700
     34 H18B         2.8410     1.9650     1.5960 hc         1 3GN       0.048700
@<TRIPOS>BOND
     1     1     2 ar  
     2     1    11 ar  
     3     1    13 1   
     4     2     3 ar  
     5     2     5 1   
     6     3     9 ar  
     7     3    19 1   
     8     4     6 1   
     9     4    12 2   
    10     4    13 1   
    11     5    14 1   
    12     5    15 2   
    13     6     8 1   
    14     6    16 1   
    15     6    18 1   
    16     7    16 1   
    17     7    17 1   
    18     7    20 1   
    19     7    21 1   
    20     8    17 1   
    21     8    22 1   
    22     8    23 1   
    23     9    10 ar  
    24     9    24 1   
    25    10    11 ar  
    26    10    25 1   
    27    11    12 1   
    28    13    26 1   
    29    14    27 1   
    30    14    28 1   
    31    16    29 1   
    32    17    30 1   
    33    17    31 1   
    34    18    32 1   
    35    18    33 1   
    36    18    34 1   
@<TRIPOS>SUBSTRUCTURE
     1 3GN         1 TEMP              0 ****  ****    0 ROOT
