@<TRIPOS>MOLECULE
3GN
   34    36     1     0     0
SMALL
No Charge or Current Charge


@<TRIPOS>ATOM
      1 C4          -1.1420     0.3170     0.0250 ca         1 3GN      -0.037200
      2 C5          -2.4490    -0.2050    -0.0710 ca         1 3GN      -0.155600
      3 C6          -3.4860     0.7450    -0.2720 ca         1 3GN      -0.067000
      4 C8           1.0420     0.6550     0.2340 cc         1 3GN       0.429800
      5 C10         -2.7190    -1.6920     0.0330 c          1 3GN       0.629700
      6 C13          2.5210     0.2650     0.4300 c5         1 3GN       0.160900
      7 C15          3.3230    -1.6770    -0.7190 c5         1 3GN       0.152800
      8 C17          3.3220     0.6620    -0.8610 c5         1 3GN      -0.080400
      9 C1          -3.1950     2.1270    -0.3660 ca         1 3GN      -0.154000
     10 C2          -1.8680     2.5930    -0.2610 ca         1 3GN      -0.024000
     11 C3          -0.8510     1.6510    -0.0640 ca         1 3GN       0.055400
     12 N7           0.5170     1.8890     0.0650 nd         1 3GN      -0.592100
     13 N9           0.0480    -0.3140     0.2140 na         1 3GN      -0.265600
     14 N11         -3.9970    -2.1150    -0.0680 nt         1 3GN      -0.600000
     15 O12         -1.8390    -2.5200     0.2050 o          1 3GN      -0.636100
     16 N14          2.7160    -1.2250     0.5530 n7         1 3GN      -0.879400
     17 C16          4.2930    -0.5270    -1.0410 c5         1 3GN      -0.113400
     18 C18          3.1230     0.9110     1.7010 c3         1 3GN      -0.103100
     19 H6          -4.5230     0.4310    -0.3580 ha         1 3GN       0.101000
     20 H15          3.8360    -2.6440    -0.6100 h1         1 3GN       0.053200
     21 H15A         2.5590    -1.7830    -1.5040 h1         1 3GN       0.053200
     22 H17          2.6610     0.7520    -1.7330 hc         1 3GN       0.064200
     23 H17A         3.8440     1.6210    -0.7640 hc         1 3GN       0.064200
     24 H1          -4.0030     2.8390    -0.5190 ha         1 3GN       0.115000
     25 H2          -1.6380     3.6530    -0.3330 ha         1 3GN       0.128000
     26 HN9          0.2120    -1.3060     0.3250 hn         1 3GN       0.401000
     27 HN11        -4.7420    -1.4520    -0.2100 hn         1 3GN       0.315500
     28 HN1A        -4.1930    -3.1020    -0.0010 hn         1 3GN       0.315500
     29 HN14         3.4060    -1.3860     1.2970 hn         1 3GN       0.420000
     30 H16          5.1340    -0.4890    -0.3400 hc         1 3GN       0.051200
     31 H16A         4.7020    -0.5920    -2.0560 hc         1 3GN       0.051200
     32 H18          2.5810     0.5930     2.6000 hc         1 3GN       0.048700
     33 H18A         4.1790     0.6440     1.8320 hc         1 3GN       0.048700
     34 H18B         3.0640     2.0050     1.6520 hc         1 3GN       0.048700
@<TRIPOS>BOND
     1     1     2 ar  
     2     1    11 ar  
     3     1    13 1   
     4     2     3 ar  
     5     2     5 1   
     6     3     9 ar  
     7     3    19 1   
     8     4     6 1   
     9     4    12 2   
    10     4    13 1   
    11     5    14 1   
    12     5    15 2   
    13     6     8 1   
    14     6    16 1   
    15     6    18 1   
    16     7    16 1   
    17     7    17 1   
    18     7    20 1   
    19     7    21 1   
    20     8    17 1   
    21     8    22 1   
    22     8    23 1   
    23     9    10 ar  
    24     9    24 1   
    25    10    11 ar  
    26    10    25 1   
    27    11    12 1   
    28    13    26 1   
    29    14    27 1   
    30    14    28 1   
    31    16    29 1   
    32    17    30 1   
    33    17    31 1   
    34    18    32 1   
    35    18    33 1   
    36    18    34 1   
@<TRIPOS>SUBSTRUCTURE
     1 3GN         1 TEMP              0 ****  ****    0 ROOT
