@<TRIPOS>MOLECULE
3GO
   66    71     1     0     0
SMALL
abcg2


@<TRIPOS>ATOM
      1 C28         -4.8140    -1.9160     1.6650 ca         1 3GO      -0.079000
      2 C35         -5.6900    -2.9170     1.1860 ca         1 3GO      -0.087000
      3 C40         -6.0310    -4.0590     1.9410 ca         1 3GO      -0.058000
      4 C39         -6.8860    -4.9800     1.4050 ca         1 3GO      -0.168000
      5 C38         -7.3980    -4.7540     0.1100 ca         1 3GO       0.355900
      6 N37         -7.1040    -3.7110    -0.6200 nb         1 3GO      -0.660000
      7 C36         -6.2590    -2.7880    -0.1040 ca         1 3GO       0.274000
      8 C27         -5.9300    -1.6510    -0.8800 ca         1 3GO      -0.085000
      9 C26         -5.0830    -0.6980    -0.3890 ca         1 3GO      -0.085000
     10 C25         -4.5130    -0.8200     0.9030 ca         1 3GO      -0.104300
     11 C24         -3.6060     0.2600     1.4220 c3         1 3GO       0.265100
     12 N23         -2.5150     0.4830     0.4940 nu         1 3GO      -0.873400
     13 C6          -1.7710     1.6100     0.6190 cc         1 3GO       0.645700
     14 N7          -1.9880     2.5560     1.4900 nd         1 3GO      -0.622100
     15 C8          -1.0350     3.5040     1.2110 ca         1 3GO      -0.063600
     16 C4          -0.7420     4.7450     1.7890 ca         1 3GO       0.427900
     17 N10         -1.4280     5.2370     2.8340 nv         1 3GO      -1.053900
     18 N1           0.2840     5.4490     1.2930 nb         1 3GO      -0.285000
     19 C2           0.9780     4.9460     0.2810 ca         1 3GO       0.167900
     20 N3           0.7950     3.7900    -0.3410 nb         1 3GO      -0.237000
     21 C9          -0.2270     3.1080     0.1600 ca         1 3GO       0.133500
     22 N5          -0.7190     1.8860    -0.2360 na         1 3GO      -0.319300
     23 C11         -0.2610     1.0710    -1.3360 c5         1 3GO       0.313300
     24 O12          1.0300     0.5960    -1.0590 os         1 3GO      -0.434000
     25 C31         -0.2080     1.7870    -2.6960 c5         1 3GO       0.109300
     26 O34         -0.7200     0.9030    -3.6590 oh         1 3GO      -0.716000
     27 C32          1.2960     2.0030    -2.9160 c5         1 3GO       0.089300
     28 O33          1.6670     1.9400    -4.2690 oh         1 3GO      -0.714000
     29 C13          1.9090     0.8370    -2.1460 c5         1 3GO       0.175300
     30 C14          3.2900     1.1520    -1.6290 c3         1 3GO       0.159600
     31 O15          3.8400    -0.0000    -1.0430 os         1 3GO      -0.444000
     32 C16          5.1400     0.1930    -0.5620 c3         1 3GO       0.205900
     33 C17          5.7340    -1.1250    -0.1540 ca         1 3GO      -0.060300
     34 C18          5.3580    -2.3120    -0.7790 ca         1 3GO      -0.101000
     35 C19          5.9490    -3.5120    -0.4230 ca         1 3GO      -0.073500
     36 C20          6.9290    -3.5330     0.5680 ca         1 3GO      -0.020000
     37 C29          7.5390    -4.7680     0.9380 cg         1 3GO       0.325000
     38 N30          8.0330    -5.7660     1.2380 n1         1 3GO      -0.455000
     39 C21          7.3130    -2.3510     1.2010 ca         1 3GO      -0.073500
     40 C22          6.7110    -1.1600     0.8390 ca         1 3GO      -0.101000
     41 H28         -4.3820    -2.0310     2.6530 ha         1 3GO       0.116000
     42 H40         -5.6160    -4.1930     2.9320 ha         1 3GO       0.119000
     43 H39         -7.1760    -5.8680     1.9490 ha         1 3GO       0.125000
     44 H38         -8.0790    -5.4780    -0.3260 h4         1 3GO       0.020100
     45 H27         -6.3650    -1.5520    -1.8660 ha         1 3GO       0.134000
     46 H26         -4.8390     0.1660    -0.9940 ha         1 3GO       0.128000
     47 H24         -4.1620     1.1940     1.5150 h1         1 3GO       0.061200
     48 H24A        -3.2480     0.0010     2.4240 h1         1 3GO       0.061200
     49 HN23        -2.0230    -0.3540     0.2170 hn         1 3GO       0.485000
     50 HN10        -2.2980     4.8110     3.1010 hn         1 3GO       0.497500
     51 HN1A        -1.2920     6.1980     3.0960 hn         1 3GO       0.497500
     52 H2           1.7960     5.5580    -0.0830 h5         1 3GO       0.042100
     53 H11         -0.9690     0.2430    -1.4200 h2         1 3GO       0.094700
     54 H31         -0.7730     2.7260    -2.6800 h1         1 3GO       0.076700
     55 HO34        -0.2050     1.0370    -4.4660 ho         1 3GO       0.529000
     56 H32          1.5920     2.9490    -2.4560 h1         1 3GO       0.090700
     57 HO33         1.6390     2.8280    -4.6380 ho         1 3GO       0.517000
     58 H13          1.9560    -0.0470    -2.7980 h1         1 3GO       0.078700
     59 H14          3.9070     1.4950    -2.4710 h1         1 3GO       0.040700
     60 H14A         3.2290     1.9790    -0.9080 h1         1 3GO       0.040700
     61 H16          5.7820     0.6420    -1.3350 h1         1 3GO       0.033700
     62 H16A         5.1530     0.8860     0.2900 h1         1 3GO       0.033700
     63 H18          4.6010    -2.3080    -1.5500 ha         1 3GO       0.126500
     64 H19          5.6540    -4.4290    -0.9140 ha         1 3GO       0.125500
     65 H21          8.0690    -2.3670     1.9750 ha         1 3GO       0.125500
     66 H22          7.0040    -0.2460     1.3400 ha         1 3GO       0.126500
@<TRIPOS>BOND
     1     1     2 ar  
     2     1    10 ar  
     3     1    41 1   
     4     2     3 ar  
     5     2     7 ar  
     6     3     4 ar  
     7     3    42 1   
     8     4     5 ar  
     9     4    43 1   
    10     5     6 ar  
    11     5    44 1   
    12     6     7 ar  
    13     7     8 ar  
    14     8     9 ar  
    15     8    45 1   
    16     9    10 ar  
    17     9    46 1   
    18    10    11 1   
    19    11    12 1   
    20    11    47 1   
    21    11    48 1   
    22    12    13 1   
    23    12    49 1   
    24    13    14 2   
    25    13    22 1   
    26    14    15 1   
    27    15    16 ar  
    28    15    21 ar  
    29    16    17 1   
    30    16    18 ar  
    31    17    50 1   
    32    17    51 1   
    33    18    19 ar  
    34    19    20 ar  
    35    19    52 1   
    36    20    21 ar  
    37    21    22 1   
    38    22    23 1   
    39    23    24 1   
    40    23    25 1   
    41    23    53 1   
    42    24    29 1   
    43    25    26 1   
    44    25    27 1   
    45    25    54 1   
    46    26    55 1   
    47    27    28 1   
    48    27    29 1   
    49    27    56 1   
    50    28    57 1   
    51    29    30 1   
    52    29    58 1   
    53    30    31 1   
    54    30    59 1   
    55    30    60 1   
    56    31    32 1   
    57    32    33 1   
    58    32    61 1   
    59    32    62 1   
    60    33    34 ar  
    61    33    40 ar  
    62    34    35 ar  
    63    34    63 1   
    64    35    36 ar  
    65    35    64 1   
    66    36    37 1   
    67    36    39 ar  
    68    37    38 3   
    69    39    40 ar  
    70    39    65 1   
    71    40    66 1   
@<TRIPOS>SUBSTRUCTURE
     1 3GO         1 TEMP              0 ****  ****    0 ROOT
