@<TRIPOS>MOLECULE
3GO
   66    71     1     0     0
SMALL
No Charge or Current Charge


@<TRIPOS>ATOM
      1 C28         -4.6230    -1.7210     1.4410 ca         1 3GO      -0.079000
      2 C35         -5.3170    -2.8550     0.9780 ca         1 3GO      -0.087000
      3 C40         -5.0820    -4.1130     1.5610 ca         1 3GO      -0.058000
      4 C39         -5.7940    -5.2170     1.0710 ca         1 3GO      -0.168000
      5 C38         -6.7100    -5.0280     0.0240 ca         1 3GO       0.355900
      6 N37         -6.9410    -3.8200    -0.5420 nb         1 3GO      -0.660000
      7 C36         -6.2590    -2.7450    -0.0780 ca         1 3GO       0.274000
      8 C27         -6.4790    -1.4780    -0.6480 ca         1 3GO      -0.085000
      9 C26         -5.7860    -0.3450    -0.1870 ca         1 3GO      -0.085000
     10 C25         -4.8550    -0.4600     0.8620 ca         1 3GO      -0.104300
     11 C24         -4.1020     0.7640     1.3600 c3         1 3GO       0.265100
     12 N23         -2.8380     0.8930     0.6320 nu         1 3GO      -0.873400
     13 C6          -1.9480     1.9140     0.7590 cc         1 3GO       0.645700
     14 N7          -2.1390     2.9280     1.6040 nd         1 3GO      -0.622100
     15 C8          -1.0230     3.7370     1.3640 ca         1 3GO      -0.063600
     16 C4          -0.6660     4.9700     1.9520 ca         1 3GO       0.427900
     17 N10         -1.4220     5.5730     2.9120 nv         1 3GO      -1.053900
     18 N1           0.4460     5.6230     1.5760 nb         1 3GO      -0.285000
     19 C2           1.1910     5.0250     0.6160 ca         1 3GO       0.167900
     20 N3           0.9280     3.8470     0.0010 nb         1 3GO      -0.237000
     21 C9          -0.1950     3.2140     0.3990 ca         1 3GO       0.133500
     22 N5          -0.7780     2.0340     0.0150 na         1 3GO      -0.319300
     23 C11         -0.2760     1.0670    -0.9620 c5         1 3GO       0.313300
     24 O12          1.1400     0.8560    -0.7430 os         1 3GO      -0.434000
     25 C31         -0.4430     1.4810    -2.4720 c5         1 3GO       0.109300
     26 O34         -0.8840     0.4050    -3.3130 oh         1 3GO      -0.716000
     27 C32          1.0170     1.8410    -2.8670 c5         1 3GO       0.089300
     28 O33          1.2010     1.7140    -4.2940 oh         1 3GO      -0.714000
     29 C13          1.7890     0.7760    -2.0300 c5         1 3GO       0.175300
     30 C14          3.3100     1.0360    -1.8870 c3         1 3GO       0.159600
     31 O15          3.9260    -0.1270    -1.3000 os         1 3GO      -0.444000
     32 C16          5.3420    -0.0090    -1.0890 c3         1 3GO       0.205900
     33 C17          5.8480    -1.3020    -0.4630 ca         1 3GO      -0.060300
     34 C18          6.3530    -2.3360    -1.2740 ca         1 3GO      -0.101000
     35 C19          6.8210    -3.5300    -0.6960 ca         1 3GO      -0.073500
     36 C20          6.7860    -3.7000     0.7020 ca         1 3GO      -0.020000
     37 C29          7.2630    -4.9200     1.2940 cg         1 3GO       0.325000
     38 N30          7.6590    -5.9090     1.7720 n1         1 3GO      -0.455000
     39 C21          6.2790    -2.6680     1.5150 ca         1 3GO      -0.073500
     40 C22          5.8120    -1.4750     0.9350 ca         1 3GO      -0.101000
     41 H28         -3.9010    -1.8180     2.2500 ha         1 3GO       0.116000
     42 H40         -4.3660    -4.2320     2.3720 ha         1 3GO       0.119000
     43 H39         -5.6450    -6.2070     1.4910 ha         1 3GO       0.125000
     44 H38         -7.2760    -5.8680    -0.3760 h4         1 3GO       0.020100
     45 H27         -7.1950    -1.3750    -1.4590 ha         1 3GO       0.134000
     46 H26         -5.9730     0.6230    -0.6480 ha         1 3GO       0.128000
     47 H24         -4.7200     1.6620     1.2140 h1         1 3GO       0.061200
     48 H24A        -3.9110     0.6660     2.4380 h1         1 3GO       0.061200
     49 HN23        -2.6890     0.2760    -0.1580 hn         1 3GO       0.485000
     50 HN10        -2.3600     5.2060     3.0520 hn         1 3GO       0.497500
     51 HN1A        -1.2880     6.5660     3.0820 hn         1 3GO       0.497500
     52 H2           2.0950     5.5460     0.3040 h5         1 3GO       0.042100
     53 H11         -0.8060     0.1250    -0.7800 h2         1 3GO       0.094700
     54 H31         -1.1080     2.3500    -2.5760 h1         1 3GO       0.076700
     55 HO34        -0.3080     0.5200    -4.1150 ho         1 3GO       0.529000
     56 H32          1.2670     2.8560    -2.5240 h1         1 3GO       0.090700
     57 HO33         1.9330     2.3220    -4.5630 ho         1 3GO       0.517000
     58 H13          1.6400    -0.2310    -2.4450 h1         1 3GO       0.078700
     59 H14          3.7350     1.2300    -2.8800 h1         1 3GO       0.040700
     60 H14A         3.4700     1.9270    -1.2630 h1         1 3GO       0.040700
     61 H16          5.8620     0.1680    -2.0390 h1         1 3GO       0.033700
     62 H16A         5.5640     0.8330    -0.4190 h1         1 3GO       0.033700
     63 H18          6.3820    -2.2160    -2.3550 ha         1 3GO       0.126500
     64 H19          7.2080    -4.3210    -1.3360 ha         1 3GO       0.125500
     65 H21          6.2450    -2.7880     2.5960 ha         1 3GO       0.125500
     66 H22          5.4190    -0.6850     1.5710 ha         1 3GO       0.126500
@<TRIPOS>BOND
     1     1     2 ar  
     2     1    10 ar  
     3     1    41 1   
     4     2     3 ar  
     5     2     7 ar  
     6     3     4 ar  
     7     3    42 1   
     8     4     5 ar  
     9     4    43 1   
    10     5     6 ar  
    11     5    44 1   
    12     6     7 ar  
    13     7     8 ar  
    14     8     9 ar  
    15     8    45 1   
    16     9    10 ar  
    17     9    46 1   
    18    10    11 1   
    19    11    12 1   
    20    11    47 1   
    21    11    48 1   
    22    12    13 1   
    23    12    49 1   
    24    13    14 2   
    25    13    22 1   
    26    14    15 1   
    27    15    16 ar  
    28    15    21 ar  
    29    16    17 1   
    30    16    18 ar  
    31    17    50 1   
    32    17    51 1   
    33    18    19 ar  
    34    19    20 ar  
    35    19    52 1   
    36    20    21 ar  
    37    21    22 1   
    38    22    23 1   
    39    23    24 1   
    40    23    25 1   
    41    23    53 1   
    42    24    29 1   
    43    25    26 1   
    44    25    27 1   
    45    25    54 1   
    46    26    55 1   
    47    27    28 1   
    48    27    29 1   
    49    27    56 1   
    50    28    57 1   
    51    29    30 1   
    52    29    58 1   
    53    30    31 1   
    54    30    59 1   
    55    30    60 1   
    56    31    32 1   
    57    32    33 1   
    58    32    61 1   
    59    32    62 1   
    60    33    34 ar  
    61    33    40 ar  
    62    34    35 ar  
    63    34    63 1   
    64    35    36 ar  
    65    35    64 1   
    66    36    37 1   
    67    36    39 ar  
    68    37    38 3   
    69    39    40 ar  
    70    39    65 1   
    71    40    66 1   
@<TRIPOS>SUBSTRUCTURE
     1 3GO         1 TEMP              0 ****  ****    0 ROOT
