@<TRIPOS>MOLECULE
3GQ
   18    18     1     0     0
SMALL
bcc


@<TRIPOS>ATOM
      1 OAC         -0.1370    -2.1640     1.0200 o          1 3GQ      -0.863800
      2 CAL          0.0070    -1.5890    -0.0720 c          1 3GQ       1.000200
      3 OAF          0.2100    -2.1060    -1.1850 o          1 3GQ      -0.863800
      4 CAO         -0.0020    -0.0630    -0.0330 ca         1 3GQ      -0.043600
      5 CAM         -1.2230     0.6380    -0.0110 ca         1 3GQ      -0.157100
      6 CAJ         -2.5860    -0.0500    -0.0300 c          1 3GQ       0.926700
      7 OAD         -2.6390    -1.2060    -0.4680 o          1 3GQ      -0.864800
      8 OAA         -3.5630     0.6400     0.3420 o          1 3GQ      -0.864800
      9 CAH         -1.2180     2.0320     0.0130 ca         1 3GQ      -0.145000
     10 CAG         -0.0330     2.7480    -0.0170 ca         1 3GQ      -0.251000
     11 CAI          1.1670     2.0580    -0.0380 ca         1 3GQ      -0.145000
     12 CAN          1.2020     0.6640    -0.0240 ca         1 3GQ      -0.157100
     13 CAK          2.5800     0.0100     0.0290 c          1 3GQ       0.926700
     14 OAE          3.5540     0.7520    -0.2280 o          1 3GQ      -0.864800
     15 OAB          2.6580    -1.1510     0.4690 o          1 3GQ      -0.864800
     16 H3          -2.1600     2.5600     0.0440 ha         1 3GQ       0.093500
     17 H4          -0.0440     3.8310    -0.0160 ha         1 3GQ       0.044000
     18 H5           2.1020     2.6030    -0.0530 ha         1 3GQ       0.093500
@<TRIPOS>BOND
     1     1     2 1   
     2     2     3 1   
     3     2     4 1   
     4     4     5 ar  
     5     4    12 ar  
     6     5     6 1   
     7     5     9 ar  
     8     6     7 1   
     9     6     8 1   
    10     9    10 ar  
    11     9    16 1   
    12    10    11 ar  
    13    10    17 1   
    14    11    12 ar  
    15    11    18 1   
    16    12    13 1   
    17    13    14 1   
    18    13    15 1   
@<TRIPOS>SUBSTRUCTURE
     1 3GQ         1 TEMP              0 ****  ****    0 ROOT
