@<TRIPOS>MOLECULE
3GQ
   18    18     1     0     0
SMALL
No Charge or Current Charge


@<TRIPOS>ATOM
      1 OAC         -0.4380    -2.1650     0.9350 o          1 3GQ      -0.758500
      2 CAL          0.0210    -1.5670    -0.0320 c          1 3GQ       0.789600
      3 OAF          0.4940    -2.1370    -1.0090 o          1 3GQ      -0.758500
      4 CAO          0.0010    -0.0470    -0.0190 ca         1 3GQ      -0.043600
      5 CAM         -1.2360     0.6550    -0.0290 ca         1 3GQ      -0.157100
      6 CAJ         -2.5490    -0.0910    -0.0810 c          1 3GQ       0.716100
      7 OAD         -2.7630    -0.8200    -1.0380 o          1 3GQ      -0.759500
      8 OAA         -3.3850     0.1510     0.7780 o          1 3GQ      -0.759500
      9 CAH         -1.2400     2.0660    -0.0100 ca         1 3GQ      -0.127000
     10 CAG         -0.0360     2.7820     0.0040 ca         1 3GQ      -0.233000
     11 CAI          1.1870     2.0970     0.0070 ca         1 3GQ      -0.127000
     12 CAN          1.2200     0.6860     0.0020 ca         1 3GQ      -0.157100
     13 CAK          2.5510    -0.0260     0.0420 c          1 3GQ       0.716100
     14 OAE          3.3810     0.2520    -0.8130 o          1 3GQ      -0.759500
     15 OAB          2.7840    -0.7650     0.9870 o          1 3GQ      -0.759500
     16 H3          -2.1850     2.6060    -0.0190 ha         1 3GQ       0.075500
     17 H4          -0.0500     3.8680     0.0130 ha         1 3GQ       0.026000
     18 H5           2.1180     2.6610     0.0250 ha         1 3GQ       0.075500
@<TRIPOS>BOND
     1     1     2 1   
     2     2     3 1   
     3     2     4 1   
     4     4     5 ar  
     5     4    12 ar  
     6     5     6 1   
     7     5     9 ar  
     8     6     7 1   
     9     6     8 1   
    10     9    10 ar  
    11     9    16 1   
    12    10    11 ar  
    13    10    17 1   
    14    11    12 ar  
    15    11    18 1   
    16    12    13 1   
    17    13    14 1   
    18    13    15 1   
@<TRIPOS>SUBSTRUCTURE
     1 3GQ         1 TEMP              0 ****  ****    0 ROOT
