@<TRIPOS>MOLECULE
3GR
   12    11     1     0     0
SMALL
abcg2


@<TRIPOS>ATOM
      1 C1           0.7720     0.3070     0.9850 c3         1 3GR       0.137600
      2 O1           0.4200    -0.2640     2.2210 oh         1 3GR      -0.649000
      3 C2          -0.2740    -0.0960    -0.0410 c3         1 3GR       0.044300
      4 O2          -1.5730     0.3320     0.2730 oh         1 3GR      -0.630000
      5 C3           0.1020     0.3480    -1.4420 c          1 3GR       0.538900
      6 O3           1.2300     0.4730    -1.8450 o          1 3GR      -0.507100
      7 H1C1         0.8190     1.4040     1.0420 h1         1 3GR       0.032700
      8 H1C2         1.7520    -0.0370     0.6400 h1         1 3GR       0.032700
      9 H1           1.0670     0.0190     2.8730 ho         1 3GR       0.446000
     10 H2          -0.3180    -1.1930    -0.0810 h1         1 3GR       0.107700
     11 HA          -1.5650     1.2860     0.4100 ho         1 3GR       0.442000
     12 H3          -0.7690     0.5380    -2.0970 h4         1 3GR       0.002200
@<TRIPOS>BOND
     1     1     2 1   
     2     1     3 1   
     3     1     7 1   
     4     1     8 1   
     5     2     9 1   
     6     3     4 1   
     7     3     5 1   
     8     3    10 1   
     9     4    11 1   
    10     5     6 2   
    11     5    12 1   
@<TRIPOS>SUBSTRUCTURE
     1 3GR         1 TEMP              0 ****  ****    0 ROOT
