@<TRIPOS>MOLECULE
3GR
   12    11     1     0     0
SMALL
No Charge or Current Charge


@<TRIPOS>ATOM
      1 C1           0.7880     0.3100     0.9080 c3         1 3GR       0.137600
      2 O1           0.3040     0.0730     2.2400 oh         1 3GR      -0.649000
      3 C2          -0.3380     0.0140    -0.1150 c3         1 3GR       0.044300
      4 O2          -1.5030     0.8050     0.2290 oh         1 3GR      -0.630000
      5 C3           0.1150     0.2530    -1.5800 c          1 3GR       0.538900
      6 O3           1.1590     0.8130    -1.9050 o          1 3GR      -0.507100
      7 H1C1         1.1180     1.3530     0.8010 h1         1 3GR       0.032700
      8 H1C2         1.6500    -0.3380     0.6940 h1         1 3GR       0.032700
      9 H1           1.0580     0.2270     2.8540 ho         1 3GR       0.446000
     10 H2          -0.5780    -1.0560    -0.0510 h1         1 3GR       0.107700
     11 HA          -1.5320     0.8110     1.2150 ho         1 3GR       0.442000
     12 H3          -0.5790    -0.1460    -2.3530 h4         1 3GR       0.002200
@<TRIPOS>BOND
     1     1     2 1   
     2     1     3 1   
     3     1     7 1   
     4     1     8 1   
     5     2     9 1   
     6     3     4 1   
     7     3     5 1   
     8     3    10 1   
     9     4    11 1   
    10     5     6 2   
    11     5    12 1   
@<TRIPOS>SUBSTRUCTURE
     1 3GR         1 TEMP              0 ****  ****    0 ROOT
