@<TRIPOS>MOLECULE
3GT
   94    97     1     0     0
SMALL
abcg2


@<TRIPOS>ATOM
      1 CBJ         29.5520   -24.0720   -43.8300 c3         1 3GT      -0.079100
      2 CBI         28.6830   -23.0270   -43.1820 cx         1 3GT       0.075000
      3 OBK         28.9450   -22.7630   -41.7870 op         1 3GT      -0.432000
      4 CBH         29.1760   -21.7100   -42.7450 cx         1 3GT       0.095300
      5 CBF         30.5920   -21.1960   -42.8640 c3         1 3GT      -0.046700
      6 CBG         30.9040   -20.3240   -41.6440 c3         1 3GT      -0.082100
      7 CBA         30.7530   -20.4280   -44.1770 c6         1 3GT       0.191300
      8 CAZ         30.6120   -21.2970   -45.4070 c6         1 3GT      -0.156400
      9 OBB         32.0870   -19.8510   -44.1630 os         1 3GT      -0.442100
     10 CBC         32.6050   -19.3380   -45.2950 c          1 3GT       0.710100
     11 OBE         33.6400   -18.6950   -45.2320 o          1 3GT      -0.543000
     12 NBD         31.9390   -19.5640   -46.4520 ns         1 3GT      -0.567900
     13 CAW         30.8490   -20.4940   -46.6780 c6         1 3GT       0.364400
     14 OBL         29.6820   -19.7960   -47.0920 oh         1 3GT      -0.713000
     15 CAV         31.2370   -21.4360   -47.8410 c3         1 3GT       0.206500
     16 OAX         31.5910   -20.6070   -48.9430 os         1 3GT      -0.449000
     17 CAY         32.3370   -21.2920   -49.9410 c3         1 3GT       0.141900
     18 CAU         30.1460   -22.4010   -48.1800 c2         1 3GT      -0.242200
     19 CAT         30.1400   -23.6780   -47.7790 ce         1 3GT      -0.163000
     20 CAJ         29.0480   -24.5930   -48.0370 ce         1 3GT      -0.194000
     21 CAH         28.9110   -25.8480   -47.5790 c2         1 3GT      -0.084400
     22 CAI         29.8970   -26.5530   -46.6970 c3         1 3GT      -0.060900
     23 CAG         27.6790   -26.6450   -47.9490 c3         1 3GT       0.002100
     24 CAF         26.8550   -27.0210   -46.7380 ca         1 3GT      -0.040300
     25 CAE         26.0860   -26.0610   -46.0890 ca         1 3GT      -0.134000
     26 CAA         26.9000   -28.3170   -46.2330 ca         1 3GT      -0.191000
     27 CAB         26.2040   -28.6650   -45.0760 ca         1 3GT       0.153100
     28 OAK         26.2140   -29.8970   -44.5230 os         1 3GT      -0.329100
     29 CAL         26.9950   -30.9180   -45.1500 c3         1 3GT       0.148900
     30 CAC         25.4510   -27.6790   -44.4220 ca         1 3GT       0.067000
     31 CL1         24.6270   -28.0820   -42.9430 cl         1 3GT      -0.167000
     32 CAD         25.3860   -26.3830   -44.9320 ca         1 3GT      -0.005000
     33 NAN         24.6060   -25.3940   -44.2600 n          1 3GT      -0.243400
     34 CAO         23.1510   -25.4320   -44.4300 c3         1 3GT       0.095300
     35 CAP         25.1260   -24.5370   -43.3450 c          1 3GT       0.614100
     36 OAR         24.4060   -23.7960   -42.6770 o          1 3GT      -0.576100
     37 CAQ         26.6310   -24.5090   -43.1720 c3         1 3GT      -0.153400
     38 CAS         27.1900   -23.1270   -43.4670 c3         1 3GT       0.194300
     39 OBM         26.9470   -22.8510   -44.8750 os         1 3GT      -0.450100
     40 C           26.6720   -21.5820   -45.2260 c          1 3GT       0.610100
     41 O           26.6840   -20.6520   -44.4570 o          1 3GT      -0.474000
     42 CA          26.5080   -21.4360   -46.7360 c3         1 3GT       0.060700
     43 CB          26.1610   -20.0070   -47.1330 c3         1 3GT      -0.100100
     44 N           25.5700   -22.4070   -47.3050 n          1 3GT      -0.409800
     45 CBT         25.8070   -22.8440   -48.6800 c3         1 3GT       0.092300
     46 CBS         24.3640   -22.5740   -46.7070 c          1 3GT       0.587100
     47 OBV         24.1080   -22.0380   -45.6260 o          1 3GT      -0.580100
     48 CBU         23.3590   -23.4450   -47.4180 c3         1 3GT      -0.171100
     49 H1          30.6080   -23.8530   -43.7000 hc         1 3GT       0.051700
     50 H2          29.3510   -25.0500   -43.3910 hc         1 3GT       0.051700
     51 H3          29.3360   -24.1310   -44.8960 hc         1 3GT       0.051700
     52 H4          28.4330   -20.9190   -42.6930 h1         1 3GT       0.108700
     53 H5          31.2850   -22.0400   -42.8830 hc         1 3GT       0.069700
     54 H6          30.7500   -20.8980   -40.7290 hc         1 3GT       0.050033
     55 H7          31.9350   -19.9770   -41.6620 hc         1 3GT       0.050033
     56 H8          30.2460   -19.4520   -41.6150 hc         1 3GT       0.050033
     57 H9          30.0430   -19.5940   -44.2010 h1         1 3GT       0.061700
     58 H10         29.6170   -21.7250   -45.4630 hc         1 3GT       0.079200
     59 H11         31.3310   -22.1140   -45.3430 hc         1 3GT       0.079200
     60 H12         32.3740   -19.1840   -47.2810 hn         1 3GT       0.347500
     61 H13         29.4340   -19.1610   -46.4070 ho         1 3GT       0.516000
     62 H14         32.1230   -21.9860   -47.5020 h1         1 3GT       0.046700
     63 H15         32.5770   -20.5630   -50.7140 h1         1 3GT       0.036700
     64 H16         33.2640   -21.6990   -49.5230 h1         1 3GT       0.036700
     65 H17         31.7590   -22.1100   -50.3810 h1         1 3GT       0.036700
     66 H18         29.3120   -21.9980   -48.7450 ha         1 3GT       0.190000
     67 H19         30.9890   -24.0400   -47.2080 ha         1 3GT       0.169000
     68 H20         28.2540   -24.2010   -48.6620 ha         1 3GT       0.167000
     69 H21         30.2010   -27.5000   -47.1560 hc         1 3GT       0.046033
     70 H22         30.7900   -25.9640   -46.4990 hc         1 3GT       0.046033
     71 H23         29.4390   -26.8070   -45.7380 hc         1 3GT       0.046033
     72 H24         27.0690   -26.0650   -48.6430 hc         1 3GT       0.056200
     73 H25         27.9860   -27.5620   -48.4610 hc         1 3GT       0.056200
     74 H26         26.0510   -25.0440   -46.4520 ha         1 3GT       0.143000
     75 H27         27.4960   -29.0590   -46.7450 ha         1 3GT       0.121000
     76 H28         26.8580   -31.8060   -44.5400 h1         1 3GT       0.047033
     77 H29         26.6430   -31.1090   -46.1660 h1         1 3GT       0.047033
     78 H30         28.0510   -30.6410   -45.1710 h1         1 3GT       0.047033
     79 H31         22.7770   -24.4180   -44.5420 h1         1 3GT       0.049700
     80 H32         22.9260   -26.0030   -45.3270 h1         1 3GT       0.049700
     81 H33         22.6650   -25.8990   -43.5720 h1         1 3GT       0.049700
     82 H34         27.1300   -25.2540   -43.7820 hc         1 3GT       0.081200
     83 H35         26.8400   -24.7340   -42.1240 hc         1 3GT       0.081200
     84 H36         26.6670   -22.3790   -42.8760 h1         1 3GT       0.106700
     85 H37         27.4920   -21.6880   -47.1360 h1         1 3GT       0.075700
     86 H38         26.9090   -19.3120   -46.7560 hc         1 3GT       0.054700
     87 H39         26.1390   -19.9320   -48.2210 hc         1 3GT       0.054700
     88 H40         25.1860   -19.7240   -46.7390 hc         1 3GT       0.054700
     89 H41         25.6960   -23.9230   -48.7710 h1         1 3GT       0.040367
     90 H42         25.1250   -22.3570   -49.3800 h1         1 3GT       0.040367
     91 H43         26.8220   -22.5790   -48.9570 h1         1 3GT       0.040367
     92 H44         22.4600   -23.5070   -46.8130 hc         1 3GT       0.062033
     93 H45         23.1100   -23.0280   -48.3950 hc         1 3GT       0.062033
     94 H46         23.7570   -24.4480   -47.5820 hc         1 3GT       0.062033
@<TRIPOS>BOND
     1     1     2 1   
     2     1    49 1   
     3     1    50 1   
     4     1    51 1   
     5     2     3 1   
     6     2     4 1   
     7     2    38 1   
     8     3     4 1   
     9     4     5 1   
    10     4    52 1   
    11     5     6 1   
    12     5     7 1   
    13     5    53 1   
    14     6    54 1   
    15     6    55 1   
    16     6    56 1   
    17     7     8 1   
    18     7     9 1   
    19     7    57 1   
    20     8    13 1   
    21     8    58 1   
    22     8    59 1   
    23     9    10 1   
    24    10    11 2   
    25    10    12 1   
    26    12    13 1   
    27    12    60 1   
    28    13    14 1   
    29    13    15 1   
    30    14    61 1   
    31    15    16 1   
    32    15    18 1   
    33    15    62 1   
    34    16    17 1   
    35    17    63 1   
    36    17    64 1   
    37    17    65 1   
    38    18    19 2   
    39    18    66 1   
    40    19    20 1   
    41    19    67 1   
    42    20    21 2   
    43    20    68 1   
    44    21    22 1   
    45    21    23 1   
    46    22    69 1   
    47    22    70 1   
    48    22    71 1   
    49    23    24 1   
    50    23    72 1   
    51    23    73 1   
    52    24    25 ar  
    53    24    26 ar  
    54    25    32 ar  
    55    25    74 1   
    56    26    27 ar  
    57    26    75 1   
    58    27    28 1   
    59    27    30 ar  
    60    28    29 1   
    61    29    76 1   
    62    29    77 1   
    63    29    78 1   
    64    30    31 1   
    65    30    32 ar  
    66    32    33 1   
    67    33    34 1   
    68    33    35 1   
    69    34    79 1   
    70    34    80 1   
    71    34    81 1   
    72    35    36 2   
    73    35    37 1   
    74    37    38 1   
    75    37    82 1   
    76    37    83 1   
    77    38    39 1   
    78    38    84 1   
    79    39    40 1   
    80    40    41 2   
    81    40    42 1   
    82    42    43 1   
    83    42    44 1   
    84    42    85 1   
    85    43    86 1   
    86    43    87 1   
    87    43    88 1   
    88    44    45 1   
    89    44    46 1   
    90    45    89 1   
    91    45    90 1   
    92    45    91 1   
    93    46    47 2   
    94    46    48 1   
    95    48    92 1   
    96    48    93 1   
    97    48    94 1   
@<TRIPOS>SUBSTRUCTURE
     1 3GT         1 TEMP              0 ****  ****    0 ROOT
