@<TRIPOS>MOLECULE
3GT
   94    97     1     0     0
SMALL
No Charge or Current Charge


@<TRIPOS>ATOM
      1 CBJ         29.6330   -23.9550   -43.7670 c3         1 3GT      -0.079100
      2 CBI         28.6750   -22.9620   -43.0970 cx         1 3GT       0.075000
      3 OBK         28.9520   -22.6970   -41.7010 op         1 3GT      -0.432000
      4 CBH         29.1180   -21.5920   -42.6200 cx         1 3GT       0.095300
      5 CBF         30.5410   -21.0180   -42.7110 c3         1 3GT      -0.046700
      6 CBG         30.7810   -20.0990   -41.4840 c3         1 3GT      -0.082100
      7 CBA         30.8460   -20.2810   -44.0590 c6         1 3GT       0.191300
      8 CAZ         30.7050   -21.1530   -45.3100 c6         1 3GT      -0.156400
      9 OBB         32.2030   -19.8050   -43.9880 os         1 3GT      -0.442100
     10 CBC         32.8650   -19.2910   -45.0720 c          1 3GT       0.710100
     11 OBE         33.9310   -18.7090   -44.9820 o          1 3GT      -0.543000
     12 NBD         32.2690   -19.5220   -46.2830 ns         1 3GT      -0.567900
     13 CAW         31.1200   -20.3560   -46.5550 c6         1 3GT       0.364400
     14 OBL         30.0890   -19.4550   -46.9100 oh         1 3GT      -0.713000
     15 CAV         31.4030   -21.2970   -47.7920 c3         1 3GT       0.206500
     16 OAX         31.5870   -20.4600   -48.9570 os         1 3GT      -0.449000
     17 CAY         32.1480   -21.1180   -50.1100 c3         1 3GT       0.141900
     18 CAU         30.2890   -22.2840   -48.1050 c2         1 3GT      -0.242200
     19 CAT         30.2120   -23.5540   -47.6510 ce         1 3GT      -0.163000
     20 CAJ         29.0960   -24.4500   -47.9840 ce         1 3GT      -0.194000
     21 CAH         28.9050   -25.7120   -47.5270 c2         1 3GT      -0.084400
     22 CAI         29.8220   -26.4660   -46.5720 c3         1 3GT      -0.060900
     23 CAG         27.6960   -26.5410   -47.9370 c3         1 3GT       0.002100
     24 CAF         26.8400   -26.9910   -46.7570 ca         1 3GT      -0.040300
     25 CAE         26.0620   -26.0580   -46.0490 ca         1 3GT      -0.134000
     26 CAA         26.8320   -28.3410   -46.3650 ca         1 3GT      -0.191000
     27 CAB         26.0640   -28.7580   -45.2570 ca         1 3GT       0.153100
     28 OAK         26.0660   -30.0710   -44.8190 os         1 3GT      -0.329100
     29 CAL         26.8440   -31.0990   -45.4590 c3         1 3GT       0.148900
     30 CAC         25.2790   -27.8140   -44.5580 ca         1 3GT       0.067000
     31 Cl1         24.3760   -28.3330   -43.1260 cl         1 3GT      -0.167000
     32 CAD         25.2350   -26.4660   -44.9850 ca         1 3GT      -0.005000
     33 NAN         24.5240   -25.4770   -44.2220 n          1 3GT      -0.243400
     34 CAO         23.0450   -25.5410   -44.2480 c3         1 3GT       0.095300
     35 CAP         25.1270   -24.6290   -43.2560 c          1 3GT       0.614100
     36 OAR         24.4410   -23.9530   -42.4970 o          1 3GT      -0.576100
     37 CAQ         26.6540   -24.5850   -43.1190 c3         1 3GT      -0.153400
     38 CAS         27.1860   -23.1750   -43.4490 c3         1 3GT       0.194300
     39 OBM         26.9890   -22.9750   -44.8640 os         1 3GT      -0.450100
     40 C           26.7910   -21.6980   -45.3340 c          1 3GT       0.610100
     41 O           26.8220   -20.6970   -44.6280 o          1 3GT      -0.474000
     42 CA          26.5600   -21.6800   -46.8740 c3         1 3GT       0.060700
     43 CB          26.5000   -20.2450   -47.4500 c3         1 3GT      -0.100100
     44 N           25.4070   -22.4980   -47.3770 n          1 3GT      -0.409800
     45 CBT         25.5440   -23.0830   -48.7320 c3         1 3GT       0.092300
     46 CBS         24.1880   -22.6070   -46.6600 c          1 3GT       0.587100
     47 OBV         23.9920   -21.9820   -45.6290 o          1 3GT      -0.580100
     48 CBU         23.1040   -23.5470   -47.1950 c3         1 3GT      -0.171100
     49 H1          30.6780   -23.7810   -43.4940 hc         1 3GT       0.051700
     50 H2          29.4060   -24.9860   -43.4740 hc         1 3GT       0.051700
     51 H3          29.5570   -23.8980   -44.8580 hc         1 3GT       0.051700
     52 H4          28.3520   -20.8190   -42.5430 h1         1 3GT       0.108700
     53 H5          31.2580   -21.8400   -42.6090 hc         1 3GT       0.069700
     54 H6          30.5670   -20.6340   -40.5510 hc         1 3GT       0.050033
     55 H7          31.8240   -19.7620   -41.4370 hc         1 3GT       0.050033
     56 H8          30.1360   -19.2130   -41.5260 hc         1 3GT       0.050033
     57 H9          30.1760   -19.4130   -44.1480 h1         1 3GT       0.061700
     58 H10         29.6750   -21.5090   -45.4250 hc         1 3GT       0.079200
     59 H11         31.3480   -22.0370   -45.2080 hc         1 3GT       0.079200
     60 H12         32.7670   -19.1510   -47.0790 hn         1 3GT       0.347500
     61 H13         30.2620   -19.2840   -47.8630 ho         1 3GT       0.516000
     62 H14         32.3260   -21.8540   -47.5770 h1         1 3GT       0.046700
     63 H15         32.2840   -20.4000   -50.9280 h1         1 3GT       0.036700
     64 H16         33.1270   -21.5530   -49.8720 h1         1 3GT       0.036700
     65 H17         31.4900   -21.9200   -50.4690 h1         1 3GT       0.036700
     66 H18         29.5090   -21.8760   -48.7480 ha         1 3GT       0.190000
     67 H19         31.0010   -23.9380   -47.0040 ha         1 3GT       0.169000
     68 H20         28.3630   -24.0320   -48.6730 ha         1 3GT       0.167000
     69 H21         29.9550   -27.5070   -46.8920 hc         1 3GT       0.046033
     70 H22         30.8240   -26.0330   -46.5070 hc         1 3GT       0.046033
     71 H23         29.4020   -26.4860   -45.5600 hc         1 3GT       0.046033
     72 H24         27.0660   -25.9760   -48.6350 hc         1 3GT       0.056200
     73 H25         28.0350   -27.4120   -48.5110 hc         1 3GT       0.056200
     74 H26         26.0890   -25.0110   -46.3390 ha         1 3GT       0.143000
     75 H27         27.4430   -29.0480   -46.9170 ha         1 3GT       0.121000
     76 H28         26.6970   -32.0590   -44.9490 h1         1 3GT       0.047033
     77 H29         26.5440   -31.2210   -46.5070 h1         1 3GT       0.047033
     78 H30         27.9140   -30.8560   -45.4230 h1         1 3GT       0.047033
     79 H31         22.6310   -24.5340   -44.3780 h1         1 3GT       0.049700
     80 H32         22.7100   -26.1730   -45.0810 h1         1 3GT       0.049700
     81 H33         22.6730   -25.9620   -43.3060 h1         1 3GT       0.049700
     82 H34         27.1440   -25.3300   -43.7490 hc         1 3GT       0.081200
     83 H35         26.8970   -24.7980   -42.0730 hc         1 3GT       0.081200
     84 H36         26.5880   -22.4590   -42.8640 h1         1 3GT       0.106700
     85 H37         27.4720   -22.1420   -47.2700 h1         1 3GT       0.075700
     86 H38         27.3780   -19.6650   -47.1440 hc         1 3GT       0.054700
     87 H39         26.4740   -20.2660   -48.5460 hc         1 3GT       0.054700
     88 H40         25.6040   -19.7240   -47.0950 hc         1 3GT       0.054700
     89 H41         25.4990   -24.1780   -48.6730 h1         1 3GT       0.040367
     90 H42         24.7360   -22.7200   -49.3800 h1         1 3GT       0.040367
     91 H43         26.4990   -22.7910   -49.1850 h1         1 3GT       0.040367
     92 H44         22.2210   -23.5810   -46.5470 hc         1 3GT       0.062033
     93 H45         22.8280   -23.2440   -48.2110 hc         1 3GT       0.062033
     94 H46         23.5310   -24.5450   -47.3470 hc         1 3GT       0.062033
@<TRIPOS>BOND
     1     1     2 1   
     2     1    49 1   
     3     1    50 1   
     4     1    51 1   
     5     2     3 1   
     6     2     4 1   
     7     2    38 1   
     8     3     4 1   
     9     4     5 1   
    10     4    52 1   
    11     5     6 1   
    12     5     7 1   
    13     5    53 1   
    14     6    54 1   
    15     6    55 1   
    16     6    56 1   
    17     7     8 1   
    18     7     9 1   
    19     7    57 1   
    20     8    13 1   
    21     8    58 1   
    22     8    59 1   
    23     9    10 1   
    24    10    11 2   
    25    10    12 1   
    26    12    13 1   
    27    12    60 1   
    28    13    14 1   
    29    13    15 1   
    30    14    61 1   
    31    15    16 1   
    32    15    18 1   
    33    15    62 1   
    34    16    17 1   
    35    17    63 1   
    36    17    64 1   
    37    17    65 1   
    38    18    19 2   
    39    18    66 1   
    40    19    20 1   
    41    19    67 1   
    42    20    21 2   
    43    20    68 1   
    44    21    22 1   
    45    21    23 1   
    46    22    69 1   
    47    22    70 1   
    48    22    71 1   
    49    23    24 1   
    50    23    72 1   
    51    23    73 1   
    52    24    25 ar  
    53    24    26 ar  
    54    25    32 ar  
    55    25    74 1   
    56    26    27 ar  
    57    26    75 1   
    58    27    28 1   
    59    27    30 ar  
    60    28    29 1   
    61    29    76 1   
    62    29    77 1   
    63    29    78 1   
    64    30    31 1   
    65    30    32 ar  
    66    32    33 1   
    67    33    34 1   
    68    33    35 1   
    69    34    79 1   
    70    34    80 1   
    71    34    81 1   
    72    35    36 2   
    73    35    37 1   
    74    37    38 1   
    75    37    82 1   
    76    37    83 1   
    77    38    39 1   
    78    38    84 1   
    79    39    40 1   
    80    40    41 2   
    81    40    42 1   
    82    42    43 1   
    83    42    44 1   
    84    42    85 1   
    85    43    86 1   
    86    43    87 1   
    87    43    88 1   
    88    44    45 1   
    89    44    46 1   
    90    45    89 1   
    91    45    90 1   
    92    45    91 1   
    93    46    47 2   
    94    46    48 1   
    95    48    92 1   
    96    48    93 1   
    97    48    94 1   
@<TRIPOS>SUBSTRUCTURE
     1 3GT         1 TEMP              0 ****  ****    0 ROOT
