@<TRIPOS>MOLECULE
3GU
   45    48     1     0     0
SMALL
No Charge or Current Charge


@<TRIPOS>ATOM
      1 C1           4.4440     0.3060     0.0100 c5         1 3GU       0.230500
      2 N1           2.3580    -1.4040     0.8850 nb         1 3GU      -0.299000
      3 C2           1.3110    -2.2540     0.7770 ca         1 3GU       0.179900
      4 N3           0.0700    -1.9540     0.3280 nb         1 3GU      -0.212000
      5 C4          -0.1300    -0.6750    -0.0440 ca         1 3GU       0.141500
      6 C5           0.8670     0.2650     0.0230 ca         1 3GU      -0.100600
      7 C6           2.1350    -0.1310     0.4990 ca         1 3GU       0.447900
      8 N6           3.1690     0.8020     0.5890 nu         1 3GU      -0.904100
      9 N7           0.4510     1.5160    -0.4170 nc         1 3GU      -0.558100
     10 C8          -0.8330     1.2820    -0.7490 cd         1 3GU       0.408700
     11 N9          -1.2490    -0.0460    -0.5320 na         1 3GU      -0.288300
     12 C7          -2.5660    -0.6210    -0.8210 c5         1 3GU       0.312300
     13 C9          -3.2440    -1.4400     0.3480 c5         1 3GU       0.136300
     14 O2          -3.3330    -2.8470     0.1050 oh         1 3GU      -0.668000
     15 C21          5.1500     1.5760    -0.5190 c5         1 3GU      -0.095400
     16 C22          6.6120     1.0590    -0.6330 c5         1 3GU      -0.078400
     17 C23          6.7730     0.0600     0.5630 c5         1 3GU      -0.078400
     18 C24          5.3600    -0.0170     1.2170 c5         1 3GU      -0.095400
     19 C3          -4.6900    -0.8530     0.3940 c5         1 3GU       0.100300
     20 O3          -5.5540    -1.5650    -0.5180 oh         1 3GU      -0.684000
     21 C10         -4.4170     0.6160    -0.0510 c5         1 3GU       0.127300
     22 O4          -3.4980     0.4370    -1.1570 os         1 3GU      -0.428000
     23 C11         -3.8060     1.5210     1.0670 c3         1 3GU       0.147600
     24 O5          -3.6780     2.8820     0.6220 oh         1 3GU      -0.697000
     25 H1           4.3680    -0.4940    -0.7430 h1         1 3GU       0.083700
     26 HN6          2.8350     1.7240     0.3080 hn         1 3GU       0.508000
     27 H8          -1.5140     2.0220    -1.1520 h5         1 3GU       0.063800
     28 H6          -2.4220    -1.2670    -1.6960 h2         1 3GU       0.130700
     29 H2          -2.7220    -1.2510     1.2960 h1         1 3GU       0.041700
     30 HO2         -4.2420    -2.9350    -0.2840 ho         1 3GU       0.511000
     31 H21          4.7490     1.9130    -1.4810 hc         1 3GU       0.050450
     32 H21A         5.0890     2.4200     0.1800 hc         1 3GU       0.050450
     33 H22          6.7710     0.5450    -1.5890 hc         1 3GU       0.044450
     34 H22A         7.3380     1.8790    -0.5890 hc         1 3GU       0.044450
     35 H23          7.0960    -0.9240     0.2040 hc         1 3GU       0.044450
     36 H23A         7.5280     0.3980     1.2830 hc         1 3GU       0.044450
     37 H24          5.2650     0.7220     2.0230 hc         1 3GU       0.050450
     38 H24A         5.1550    -1.0010     1.6520 hc         1 3GU       0.050450
     39 H3          -5.1010    -0.8900     1.4130 h1         1 3GU       0.050700
     40 HO3         -6.4360    -1.1210    -0.5030 ho         1 3GU       0.507000
     41 H4          -5.3330     1.1000    -0.4170 h1         1 3GU       0.088700
     42 H5          -4.4710     1.4810     1.9400 h1         1 3GU       0.018700
     43 H5'A        -2.8310     1.1300     1.3860 h1         1 3GU       0.018700
     44 HO5         -3.3580     3.4100     1.3900 ho         1 3GU       0.506000
     45 H7           1.4830    -3.2840     1.0840 h5         1 3GU       0.045100
@<TRIPOS>BOND
     1     1     8 1   
     2     1    15 1   
     3     1    18 1   
     4     1    25 1   
     5     2     3 ar  
     6     2     7 ar  
     7     3     4 ar  
     8     3    45 1   
     9     4     5 ar  
    10     5     6 ar  
    11     5    11 1   
    12     6     7 ar  
    13     6     9 1   
    14     7     8 1   
    15     8    26 1   
    16     9    10 2   
    17    10    11 1   
    18    10    27 1   
    19    11    12 1   
    20    12    13 1   
    21    12    22 1   
    22    12    28 1   
    23    13    14 1   
    24    13    19 1   
    25    13    29 1   
    26    14    30 1   
    27    15    16 1   
    28    15    31 1   
    29    15    32 1   
    30    16    17 1   
    31    16    33 1   
    32    16    34 1   
    33    17    18 1   
    34    17    35 1   
    35    17    36 1   
    36    18    37 1   
    37    18    38 1   
    38    19    20 1   
    39    19    21 1   
    40    19    39 1   
    41    20    40 1   
    42    21    22 1   
    43    21    23 1   
    44    21    41 1   
    45    23    24 1   
    46    23    42 1   
    47    23    43 1   
    48    24    44 1   
@<TRIPOS>SUBSTRUCTURE
     1 3GU         1 TEMP              0 ****  ****    0 ROOT
