@<TRIPOS>MOLECULE
3GU
   45    48     1     0     0
SMALL
bcc


@<TRIPOS>ATOM
      1 C1           4.6960     0.3780    -0.1500 c5         1 3GU       0.230500
      2 N1           2.5120    -1.2980    -0.8060 nb         1 3GU      -0.825000
      3 C2           1.4790    -2.0830    -1.1040 ca         1 3GU       0.705900
      4 N3           0.1900    -1.8480    -0.9330 nb         1 3GU      -0.738000
      5 C4          -0.0230    -0.6490    -0.3920 ca         1 3GU       0.469800
      6 C5           0.9430     0.2760    -0.0350 ca         1 3GU      -0.231200
      7 C6           2.2830    -0.0940    -0.2700 ca         1 3GU       0.776200
      8 N6           3.3030     0.7220     0.0100 nu         1 3GU      -0.848900
      9 N7           0.3670     1.4070     0.4810 nc         1 3GU      -0.558100
     10 C8          -0.9100     1.1690     0.4390 cd         1 3GU       0.408700
     11 N9          -1.2150    -0.0610    -0.0790 na         1 3GU      -0.259000
     12 C7          -2.5280    -0.6250    -0.2810 c5         1 3GU       0.259800
     13 C9          -3.2680    -0.9480     1.0190 c5         1 3GU       0.113100
     14 O2          -2.8540    -2.1860     1.4990 oh         1 3GU      -0.545800
     15 C21          5.5850     1.6190    -0.2670 c5         1 3GU      -0.095400
     16 C22          6.9870     1.1530     0.1750 c5         1 3GU      -0.078400
     17 C23          6.8090    -0.2820     0.7150 c5         1 3GU      -0.078400
     18 C24          5.3170    -0.4030     1.0080 c5         1 3GU      -0.095400
     19 C3          -4.7220    -0.8310     0.5660 c5         1 3GU       0.077100
     20 O3          -5.0520    -2.0080    -0.1230 oh         1 3GU      -0.561800
     21 C10         -4.6250     0.3820    -0.3600 c5         1 3GU       0.104100
     22 O4          -3.3290     0.2970    -0.9620 os         1 3GU      -0.381600
     23 C11         -4.7980     1.6920     0.3830 c3         1 3GU       0.124400
     24 O5          -4.5920     2.7490    -0.5190 oh         1 3GU      -0.574800
     25 H1           4.7860    -0.2240    -1.0570 h1         1 3GU       0.083700
     26 HN6          3.0810     1.5850     0.4830 hn         1 3GU       0.452800
     27 H8          -1.6770     1.8590     0.7580 h5         1 3GU       0.063800
     28 H6          -2.3780    -1.5390    -0.8660 h2         1 3GU       0.130700
     29 H2          -3.0790    -0.1490     1.7490 h1         1 3GU       0.041700
     30 HO2         -3.1820    -2.2950     2.3970 ho         1 3GU       0.412000
     31 H21          5.5720     2.0370    -1.2740 hc         1 3GU       0.050450
     32 H21A         5.2150     2.3980     0.4050 hc         1 3GU       0.050450
     33 H22          7.7000     1.1780    -0.6500 hc         1 3GU       0.044450
     34 H22A         7.3800     1.8120     0.9490 hc         1 3GU       0.044450
     35 H23          7.0880    -1.0080    -0.0520 hc         1 3GU       0.044450
     36 H23A         7.4320    -0.4840     1.5860 hc         1 3GU       0.044450
     37 H24          5.0640     0.0860     1.9540 hc         1 3GU       0.050450
     38 H24A         4.9640    -1.4330     1.0580 hc         1 3GU       0.050450
     39 H3          -5.4070    -0.6450     1.4030 h1         1 3GU       0.050700
     40 HO3         -5.9450    -1.9170    -0.4700 ho         1 3GU       0.408000
     41 H4          -5.3710     0.3290    -1.1600 h1         1 3GU       0.088700
     42 H5          -5.8100     1.7020     0.8080 h1         1 3GU       0.018700
     43 H5'A        -4.1010     1.7410     1.2300 h1         1 3GU       0.018700
     44 HO5         -4.6720     3.5750    -0.0340 ho         1 3GU       0.407000
     45 H7           1.7350    -3.0420    -1.5400 h5         1 3GU       0.045100
@<TRIPOS>BOND
     1     1     8 1   
     2     1    15 1   
     3     1    18 1   
     4     1    25 1   
     5     2     3 ar  
     6     2     7 ar  
     7     3     4 ar  
     8     3    45 1   
     9     4     5 ar  
    10     5     6 ar  
    11     5    11 1   
    12     6     7 ar  
    13     6     9 1   
    14     7     8 1   
    15     8    26 1   
    16     9    10 2   
    17    10    11 1   
    18    10    27 1   
    19    11    12 1   
    20    12    13 1   
    21    12    22 1   
    22    12    28 1   
    23    13    14 1   
    24    13    19 1   
    25    13    29 1   
    26    14    30 1   
    27    15    16 1   
    28    15    31 1   
    29    15    32 1   
    30    16    17 1   
    31    16    33 1   
    32    16    34 1   
    33    17    18 1   
    34    17    35 1   
    35    17    36 1   
    36    18    37 1   
    37    18    38 1   
    38    19    20 1   
    39    19    21 1   
    40    19    39 1   
    41    20    40 1   
    42    21    22 1   
    43    21    23 1   
    44    21    41 1   
    45    23    24 1   
    46    23    42 1   
    47    23    43 1   
    48    24    44 1   
@<TRIPOS>SUBSTRUCTURE
     1 3GU         1 TEMP              0 ****  ****    0 ROOT
