@<TRIPOS>MOLECULE
3GV
   26    27     1     0     0
SMALL
No Charge or Current Charge


@<TRIPOS>ATOM
      1 O13          0.1080    -2.5400     0.4240 o          1 3GV      -0.576000
      2 C9          -0.4840    -1.5220     0.0920 c          1 3GV       0.549000
      3 C10         -1.9890    -1.3260    -0.0750 c5         1 3GV      -0.135400
      4 N8           0.0730    -0.2270     0.0160 n          1 3GV      -0.277400
      5 C12         -0.9680     0.8290    -0.0610 c5         1 3GV       0.119000
      6 C11         -2.2140     0.0940     0.5170 c5         1 3GV      -0.207700
      7 C14         -3.5180     0.7620     0.0160 c          1 3GV       0.728000
      8 O15         -3.7240     0.8650    -1.1850 o          1 3GV      -0.723500
      9 O16         -4.3180     1.1650     0.8460 o          1 3GV      -0.723500
     10 C4           1.4860     0.1360     0.0230 ca         1 3GV      -0.116000
     11 C5           2.5150    -0.5960     0.6850 ca         1 3GV       0.156100
     12 O7           2.2360    -1.6170     1.5380 oh         1 3GV      -0.541100
     13 C6           3.8640    -0.2340     0.5330 ca         1 3GV      -0.158000
     14 C1           4.2310     0.8120    -0.3240 ca         1 3GV      -0.087000
     15 C2           3.2410     1.4910    -1.0440 ca         1 3GV      -0.156000
     16 C3           1.8890     1.1430    -0.8870 ca         1 3GV      -0.069000
     17 H10         -2.1970    -1.3100    -1.1510 hc         1 3GV       0.075700
     18 H10A        -2.5590    -2.1350     0.3930 hc         1 3GV       0.075700
     19 H12         -0.7030     1.7160     0.5300 h1         1 3GV       0.049700
     20 H12A        -1.1180     1.1380    -1.1040 h1         1 3GV       0.049700
     21 H11         -2.1910     0.0780     1.6140 hc         1 3GV       0.038700
     22 HO7          1.3810    -2.0170     1.2260 ho         1 3GV       0.487000
     23 H6           4.6320    -0.7760     1.0780 ha         1 3GV       0.117000
     24 H1           5.2780     1.0810    -0.4440 ha         1 3GV       0.100000
     25 H2           3.5200     2.2840    -1.7340 ha         1 3GV       0.105000
     26 H3           1.1510     1.6740    -1.4840 ha         1 3GV       0.121000
@<TRIPOS>BOND
     1     1     2 2   
     2     2     3 1   
     3     2     4 1   
     4     3     6 1   
     5     3    17 1   
     6     3    18 1   
     7     4     5 1   
     8     4    10 1   
     9     5     6 1   
    10     5    19 1   
    11     5    20 1   
    12     6     7 1   
    13     6    21 1   
    14     7     8 1   
    15     7     9 1   
    16    10    11 ar  
    17    10    16 ar  
    18    11    12 1   
    19    11    13 ar  
    20    12    22 1   
    21    13    14 ar  
    22    13    23 1   
    23    14    15 ar  
    24    14    24 1   
    25    15    16 ar  
    26    15    25 1   
    27    16    26 1   
@<TRIPOS>SUBSTRUCTURE
     1 3GV         1 TEMP              0 ****  ****    0 ROOT
