@<TRIPOS>MOLECULE
3GV
   26    27     1     0     0
SMALL
abcg2


@<TRIPOS>ATOM
      1 O13          0.2700    -2.1650    -1.2760 o          1 3GV      -0.576000
      2 C9          -0.3950    -1.3160    -0.7140 c          1 3GV       0.549000
      3 C10         -1.8990    -1.2180    -0.6460 c5         1 3GV      -0.135400
      4 N8           0.1180    -0.2470    -0.0400 n          1 3GV      -0.277400
      5 C12         -0.9070     0.6950     0.4020 c5         1 3GV       0.119000
      6 C11         -2.1650    -0.1730     0.4320 c5         1 3GV      -0.207700
      7 C14         -3.4750     0.6140     0.3030 c          1 3GV       0.728000
      8 O15         -4.4250     0.0350    -0.2560 o          1 3GV      -0.723500
      9 O16         -3.4780     1.7580     0.8000 o          1 3GV      -0.723500
     10 C4           1.4860     0.1060    -0.1000 ca         1 3GV      -0.116000
     11 C5           2.3370    -0.3490     0.9100 ca         1 3GV       0.156100
     12 O7           1.8890    -1.1160     1.9190 oh         1 3GV      -0.541100
     13 C6           3.6850    -0.0020     0.8810 ca         1 3GV      -0.158000
     14 C1           4.1710     0.7900    -0.1470 ca         1 3GV      -0.087000
     15 C2           3.3280     1.2460    -1.1540 ca         1 3GV      -0.156000
     16 C3           1.9860     0.8980    -1.1250 ca         1 3GV      -0.069000
     17 H10         -2.2570    -0.8840    -1.6260 hc         1 3GV       0.075700
     18 H10A        -2.3490    -2.1910    -0.4530 hc         1 3GV       0.075700
     19 H12         -0.6480     1.1130     1.3740 h1         1 3GV       0.049700
     20 H12A        -0.9940     1.5200    -0.3110 h1         1 3GV       0.049700
     21 H11         -2.1890    -0.6860     1.4020 hc         1 3GV       0.038700
     22 HO7          0.9400    -1.2630     1.8130 ho         1 3GV       0.487000
     23 H6           4.3440    -0.3560     1.6640 ha         1 3GV       0.117000
     24 H1           5.2210     1.0540    -0.1590 ha         1 3GV       0.100000
     25 H2           3.7130     1.8620    -1.9550 ha         1 3GV       0.105000
     26 H3           1.3140     1.2450    -1.8990 ha         1 3GV       0.121000
@<TRIPOS>BOND
     1     1     2 2   
     2     2     3 1   
     3     2     4 1   
     4     3     6 1   
     5     3    17 1   
     6     3    18 1   
     7     4     5 1   
     8     4    10 1   
     9     5     6 1   
    10     5    19 1   
    11     5    20 1   
    12     6     7 1   
    13     6    21 1   
    14     7     8 1   
    15     7     9 1   
    16    10    11 ar  
    17    10    16 ar  
    18    11    12 1   
    19    11    13 ar  
    20    12    22 1   
    21    13    14 ar  
    22    13    23 1   
    23    14    15 ar  
    24    14    24 1   
    25    15    16 ar  
    26    15    25 1   
    27    16    26 1   
@<TRIPOS>SUBSTRUCTURE
     1 3GV         1 TEMP              0 ****  ****    0 ROOT
