@<TRIPOS>MOLECULE
3GW
   73    76     1     0     0
SMALL
bcc


@<TRIPOS>ATOM
      1 CBD         -8.6280     3.0240     3.0610 c          1 3GW       0.618500
      2 OAD         -8.9490     2.2870     3.9680 o          1 3GW      -0.544100
      3 CBE         -7.6970     2.6640     2.0160 cc         1 3GW      -0.225700
      4 SBB         -6.9710     1.1040     1.9760 ss         1 3GW      -0.035800
      5 CAP         -7.2790     3.4380     0.9640 cd         1 3GW      -0.083000
      6 CAQ         -6.3590     2.7780     0.1290 cd         1 3GW      -0.157000
      7 CBF         -6.0750     1.5030     0.5610 cc         1 3GW       0.058100
      8 CBG         -5.1550     0.5370    -0.0190 cc         1 3GW      -0.257400
      9 CAR         -4.4200    -0.2980     0.7500 cd         1 3GW       0.103600
     10 CBH         -5.0000     0.4510    -1.4640 c          1 3GW       0.751700
     11 OAE         -5.5790     1.1350    -2.2820 o          1 3GW      -0.623500
     12 NAV         -4.1030    -0.5180    -1.8660 ns         1 3GW      -0.602500
     13 CBI         -3.3690    -1.3830    -1.0980 c          1 3GW       0.823500
     14 OAF         -2.6200    -2.1960    -1.5840 o          1 3GW      -0.555500
     15 NBS         -3.5660    -1.2400     0.2670 n          1 3GW      -0.363000
     16 C1          -2.7970    -2.0380     1.2180 c5         1 3GW       0.325500
     17 O4          -1.4400    -1.7620     1.0910 os         1 3GW      -0.356600
     18 C2          -2.9540    -3.5550     1.1100 c5         1 3GW       0.048100
     19 O2          -4.1140    -3.9490     1.7850 oh         1 3GW      -0.603800
     20 C3          -1.6480    -4.0140     1.7720 c5         1 3GW       0.082100
     21 O3          -1.7500    -3.9500     3.1720 oh         1 3GW      -0.590800
     22 C4          -0.6650    -2.9460     1.3060 c5         1 3GW       0.136100
     23 C5           0.0920    -3.3400     0.0540 c3         1 3GW       0.197400
     24 O5           0.8630    -2.2400    -0.3680 os         1 3GW      -0.543200
     25 PBT          2.2670    -2.5410    -1.1680 p5         1 3GW       1.454800
     26 OAN          3.2080    -3.2810    -0.2680 o          1 3GW      -0.846500
     27 OAG          1.9750    -3.0710    -2.5380 o          1 3GW      -0.846500
     28 OBA          2.6800    -0.9580    -1.2460 os         1 3GW      -0.718800
     29 PBU          3.4790    -0.2420    -2.4920 p5         1 3GW       1.472800
     30 OAO          2.5010     0.2060    -3.5250 o          1 3GW      -0.834000
     31 OAH          4.6960    -1.0400    -2.8330 o          1 3GW      -0.834000
     32 O1           3.9090     1.1300    -1.6800 os         1 3GW      -0.601200
     33 C7           5.0790     1.2250    -0.9140 c6         1 3GW       0.387900
     34 O9           5.9910     2.0750    -1.5290 os         1 3GW      -0.398600
     35 C11          5.5740     3.4260    -1.6440 c6         1 3GW       0.124100
     36 C6           6.6570     4.1820    -2.3820 c3         1 3GW       0.144400
     37 O6           6.7210     3.7120    -3.7070 oh         1 3GW      -0.557800
     38 C10          5.2820     4.0280    -0.2690 c6         1 3GW       0.083100
     39 O7           6.4230     4.0880     0.5530 oh         1 3GW      -0.572800
     40 C9           4.2280     3.1690     0.4310 c6         1 3GW       0.142100
     41 O8           3.9570     3.5950     1.7390 oh         1 3GW      -0.572800
     42 C8           4.7110     1.7220     0.4910 c6         1 3GW       0.078700
     43 N2           3.7290     0.8500     1.0770 ns         1 3GW      -0.542900
     44 CBC          3.9660     0.0260     2.1140 c          1 3GW       0.688100
     45 CAA          2.8460    -0.9340     2.4270 c3         1 3GW      -0.188100
     46 OAC          5.0140     0.0240     2.7480 o          1 3GW      -0.665100
     47 H1          -9.0340     4.0450     2.9680 h4         1 3GW      -0.015800
     48 H4          -7.6200     4.4520     0.8070 ha         1 3GW       0.144000
     49 H5          -5.9050     3.2280    -0.7390 ha         1 3GW       0.176000
     50 H7          -4.4720    -0.2440     1.8300 h4         1 3GW       0.157000
     51 H8          -3.9650    -0.6140    -2.8660 hn         1 3GW       0.350500
     52 H9          -3.1700    -1.7270     2.2000 h2         1 3GW       0.058700
     53 H10         -2.9640    -3.8810     0.0690 h1         1 3GW       0.089700
     54 H11         -4.3870    -4.8110     1.4550 ho         1 3GW       0.409000
     55 H12         -1.3550    -5.0170     1.4350 h1         1 3GW       0.062700
     56 H13         -2.6010    -4.3280     3.4240 ho         1 3GW       0.401000
     57 H14          0.0640    -2.7350     2.0950 h1         1 3GW       0.098700
     58 H15          0.7170    -4.2030     0.3130 h1         1 3GW       0.025200
     59 H16         -0.5910    -3.6570    -0.7390 h1         1 3GW       0.025200
     60 H19          5.5780     0.2550    -0.8350 h2         1 3GW       0.109700
     61 H20          4.6510     3.4950    -2.2360 h1         1 3GW       0.080700
     62 H21          6.4070     5.2510    -2.3440 h1         1 3GW       0.000700
     63 H22          7.6160     4.0530    -1.8640 h1         1 3GW       0.000700
     64 H23          7.4510     4.1580    -4.1460 ho         1 3GW       0.378000
     65 H24          4.8590     5.0320    -0.4290 h1         1 3GW       0.001700
     66 H25          6.9790     4.8160     0.2610 ho         1 3GW       0.376000
     67 H26          3.3210     3.2100    -0.1890 h1         1 3GW       0.061700
     68 H27          3.5270     4.4550     1.6930 ho         1 3GW       0.373000
     69 H28          5.6070     1.6730     1.1110 h1         1 3GW       0.093700
     70 H29          2.8710     0.7190     0.5650 hn         1 3GW       0.348500
     71 H30          1.8810    -0.6120     2.0400 hc         1 3GW       0.064700
     72 H31          3.0740    -1.8960     1.9650 hc         1 3GW       0.064700
     73 H32          2.7710    -1.0800     3.5030 hc         1 3GW       0.064700
@<TRIPOS>BOND
     1     1     2 2   
     2     1     3 1   
     3     1    47 1   
     4     3     4 1   
     5     3     5 2   
     6     4     7 1   
     7     5     6 1   
     8     5    48 1   
     9     6     7 2   
    10     6    49 1   
    11     7     8 1   
    12     8     9 2   
    13     8    10 1   
    14     9    15 1   
    15     9    50 1   
    16    10    11 2   
    17    10    12 1   
    18    12    13 1   
    19    12    51 1   
    20    13    14 2   
    21    13    15 1   
    22    15    16 1   
    23    16    17 1   
    24    16    18 1   
    25    16    52 1   
    26    17    22 1   
    27    18    19 1   
    28    18    20 1   
    29    18    53 1   
    30    19    54 1   
    31    20    21 1   
    32    20    22 1   
    33    20    55 1   
    34    21    56 1   
    35    22    23 1   
    36    22    57 1   
    37    23    24 1   
    38    23    58 1   
    39    23    59 1   
    40    24    25 1   
    41    25    26 1   
    42    25    27 1   
    43    25    28 1   
    44    28    29 1   
    45    29    30 1   
    46    29    31 1   
    47    29    32 1   
    48    32    33 1   
    49    33    34 1   
    50    33    42 1   
    51    33    60 1   
    52    34    35 1   
    53    35    36 1   
    54    35    38 1   
    55    35    61 1   
    56    36    37 1   
    57    36    62 1   
    58    36    63 1   
    59    37    64 1   
    60    38    39 1   
    61    38    40 1   
    62    38    65 1   
    63    39    66 1   
    64    40    41 1   
    65    40    42 1   
    66    40    67 1   
    67    41    68 1   
    68    42    43 1   
    69    42    69 1   
    70    43    44 1   
    71    43    70 1   
    72    44    45 1   
    73    44    46 2   
    74    45    71 1   
    75    45    72 1   
    76    45    73 1   
@<TRIPOS>SUBSTRUCTURE
     1 3GW         1 TEMP              0 ****  ****    0 ROOT
