@<TRIPOS>MOLECULE
3GW
   73    76     1     0     0
SMALL
No Charge or Current Charge


@<TRIPOS>ATOM
      1 CBD         -8.4560     2.4730     3.0450 c          1 3GW       0.618500
      2 OAD         -9.0920     1.4480     3.2610 o          1 3GW      -0.544100
      3 CBE         -7.0670     2.4890     2.5570 cc         1 3GW      -0.370600
      4 SBB         -6.1440     1.0360     2.2220 ss         1 3GW       0.254000
      5 CAP         -6.3390     3.6230     2.3090 cd         1 3GW      -0.065000
      6 CAQ         -5.0230     3.3500     1.8450 cd         1 3GW      -0.139000
      7 CBF         -4.7370     2.0030     1.7360 cc         1 3GW      -0.086800
      8 CBG         -3.4670     1.4410     1.2850 cc         1 3GW      -0.257400
      9 CAR         -3.3690     0.0590     1.2430 cd         1 3GW       0.053600
     10 CBH         -2.2790     2.2500     0.8820 c          1 3GW       0.609200
     11 OAE         -2.2000     3.4660     0.8820 o          1 3GW      -0.548000
     12 NAV         -1.2130     1.5160     0.4810 ns         1 3GW      -0.468500
     13 CBI         -1.0840     0.1710     0.4010 c          1 3GW       0.614000
     14 OAF         -0.0610    -0.3180    -0.0440 o          1 3GW      -0.480000
     15 NBS         -2.1980    -0.5740     0.8280 n          1 3GW      -0.296000
     16 C1          -2.1100    -2.0560     0.9460 c5         1 3GW       0.348700
     17 O4          -0.8630    -2.5160     1.4950 os         1 3GW      -0.403000
     18 C2          -2.2200    -2.6900    -0.4780 c5         1 3GW       0.071300
     19 O2          -3.5620    -2.7500    -1.0140 oh         1 3GW      -0.726000
     20 C3          -1.6900    -4.1090    -0.1300 c5         1 3GW       0.105300
     21 O3          -2.7320    -4.8660     0.4990 oh         1 3GW      -0.713000
     22 C4          -0.4990    -3.7650     0.8390 c5         1 3GW       0.159300
     23 C5           0.8580    -3.6000     0.1020 c3         1 3GW       0.220600
     24 O5           1.8790    -3.2750     1.0560 os         1 3GW      -0.566400
     25 PBT          3.4010    -3.1690     0.5490 p5         1 3GW       1.454800
     26 OAN          4.2980    -2.9930     1.7280 o          1 3GW      -0.846500
     27 OAG          3.7470    -4.3730    -0.2620 o          1 3GW      -0.846500
     28 OBA          3.2170    -1.8200    -0.2460 os         1 3GW      -0.718800
     29 PBU          4.3440    -1.6200    -1.3250 p5         1 3GW       1.472800
     30 OAO          4.1140    -2.4360    -2.5520 o          1 3GW      -0.834000
     31 OAH          5.7360    -1.7270    -0.8030 o          1 3GW      -0.834000
     32 O1           4.0120    -0.0880    -1.6780 os         1 3GW      -0.624400
     33 C7           4.4940     0.9500    -0.8150 c6         1 3GW       0.434300
     34 O9           5.0550     1.9880    -1.6530 os         1 3GW      -0.445000
     35 C11          4.0960     2.6330    -2.5340 c6         1 3GW       0.147300
     36 C6           4.8590     3.6150    -3.4850 c3         1 3GW       0.167600
     37 O6           5.8630     2.9680    -4.2850 oh         1 3GW      -0.680000
     38 C10          2.9730     3.3330    -1.7030 c6         1 3GW       0.106300
     39 O7           3.4780     4.4180    -0.8880 oh         1 3GW      -0.695000
     40 C9           2.3030     2.2660    -0.7850 c6         1 3GW       0.165300
     41 O8           1.2980     2.9140     0.0110 oh         1 3GW      -0.635000
     42 C8           3.3780     1.5590     0.1060 c6         1 3GW       0.078700
     43 N2           2.7770     0.5750     1.0340 ns         1 3GW      -0.475900
     44 CBC          2.4340     0.8060     2.3430 c          1 3GW       0.621100
     45 CAA          1.7810    -0.3660     3.0600 c3         1 3GW      -0.188100
     46 OAC          2.6520     1.8710     2.9040 o          1 3GW      -0.665100
     47 H1          -8.9120     3.4740     3.2120 h4         1 3GW      -0.015800
     48 H4          -6.7220     4.6310     2.4500 ha         1 3GW       0.126000
     49 H5          -4.3400     4.1550     1.6100 ha         1 3GW       0.158000
     50 H7          -4.1570    -0.6340     1.5220 h4         1 3GW       0.207000
     51 H8          -0.3940     2.0460     0.2130 hn         1 3GW       0.350500
     52 H9          -2.9320    -2.3960     1.5870 h2         1 3GW       0.058700
     53 H10         -1.5370    -2.1930    -1.1830 h1         1 3GW       0.089700
     54 H11         -3.7470    -1.8900    -1.4620 ho         1 3GW       0.508000
     55 H12         -1.3360    -4.6320    -1.0300 h1         1 3GW       0.062700
     56 H13         -3.5550    -4.5150     0.0750 ho         1 3GW       0.500000
     57 H14         -0.3770    -4.5480     1.5990 h1         1 3GW       0.098700
     58 H15          1.0920    -4.5420    -0.4110 h1         1 3GW       0.025200
     59 H16          0.7690    -2.8140    -0.6590 h1         1 3GW       0.025200
     60 H19          5.2980     0.5670    -0.1660 h2         1 3GW       0.109700
     61 H20          3.6310     1.8700    -3.1760 h1         1 3GW       0.080700
     62 H21          4.1230     4.0990    -4.1390 h1         1 3GW       0.000700
     63 H22          5.3260     4.4020    -2.8780 h1         1 3GW       0.000700
     64 H23          6.3300     3.6760    -4.7840 ho         1 3GW       0.477000
     65 H24          2.2160     3.7200    -2.4000 h1         1 3GW       0.001700
     66 H25          3.7380     5.1470    -1.4950 ho         1 3GW       0.475000
     67 H26          1.8310     1.5030    -1.4230 h1         1 3GW       0.061700
     68 H27          1.7090     3.7740     0.2530 ho         1 3GW       0.412000
     69 H28          3.8700     2.3310     0.7140 h1         1 3GW       0.093700
     70 H29          2.5580    -0.3480     0.6630 hn         1 3GW       0.348500
     71 H30          0.9540    -0.7500     2.4550 hc         1 3GW       0.064700
     72 H31          2.4790    -1.2090     3.0610 hc         1 3GW       0.064700
     73 H32          1.4630    -0.1150     4.0780 hc         1 3GW       0.064700
@<TRIPOS>BOND
     1     1     2 2   
     2     1     3 1   
     3     1    47 1   
     4     3     4 1   
     5     3     5 2   
     6     4     7 1   
     7     5     6 1   
     8     5    48 1   
     9     6     7 2   
    10     6    49 1   
    11     7     8 1   
    12     8     9 2   
    13     8    10 1   
    14     9    15 1   
    15     9    50 1   
    16    10    11 2   
    17    10    12 1   
    18    12    13 1   
    19    12    51 1   
    20    13    14 2   
    21    13    15 1   
    22    15    16 1   
    23    16    17 1   
    24    16    18 1   
    25    16    52 1   
    26    17    22 1   
    27    18    19 1   
    28    18    20 1   
    29    18    53 1   
    30    19    54 1   
    31    20    21 1   
    32    20    22 1   
    33    20    55 1   
    34    21    56 1   
    35    22    23 1   
    36    22    57 1   
    37    23    24 1   
    38    23    58 1   
    39    23    59 1   
    40    24    25 1   
    41    25    26 1   
    42    25    27 1   
    43    25    28 1   
    44    28    29 1   
    45    29    30 1   
    46    29    31 1   
    47    29    32 1   
    48    32    33 1   
    49    33    34 1   
    50    33    42 1   
    51    33    60 1   
    52    34    35 1   
    53    35    36 1   
    54    35    38 1   
    55    35    61 1   
    56    36    37 1   
    57    36    62 1   
    58    36    63 1   
    59    37    64 1   
    60    38    39 1   
    61    38    40 1   
    62    38    65 1   
    63    39    66 1   
    64    40    41 1   
    65    40    42 1   
    66    40    67 1   
    67    41    68 1   
    68    42    43 1   
    69    42    69 1   
    70    43    44 1   
    71    43    70 1   
    72    44    45 1   
    73    44    46 2   
    74    45    71 1   
    75    45    72 1   
    76    45    73 1   
@<TRIPOS>SUBSTRUCTURE
     1 3GW         1 TEMP              0 ****  ****    0 ROOT
