@<TRIPOS>MOLECULE
3GX
   34    36     1     0     0
SMALL
abcg2


@<TRIPOS>ATOM
      1 CAH         -0.1010     0.8420    -0.0150 cc         1 3GX      -0.328000
      2 CAG         -1.5020     0.5530    -0.0060 cc         1 3GX       0.277000
      3 NAB         -2.3960     1.5720    -0.0990 nh         1 3GX      -0.675400
      4 CAA         -1.9610     2.9260    -0.3610 c3         1 3GX       0.212100
      5 CAC         -3.7960     1.2680    -0.3380 c6         1 3GX       0.224800
      6 CAD         -4.2280     0.0560     0.4640 c6         1 3GX      -0.090400
      7 CAE         -3.3690    -1.1460     0.1080 c6         1 3GX       0.001800
      8 CAF         -1.9160    -0.7720     0.0870 cd         1 3GX      -0.330400
      9 CAK         -0.9650    -1.8280     0.1800 c          1 3GX       0.576200
     10 OAL         -1.2410    -3.0300     0.2620 o          1 3GX      -0.589000
     11 NAJ          0.3670    -1.4460     0.1850 ns         1 3GX      -0.369100
     12 CAI          0.8020    -0.1680     0.0850 cd         1 3GX       0.148400
     13 CAM          2.2580     0.0550     0.0560 ca         1 3GX      -0.080800
     14 CAN          3.1080    -0.8490    -0.5840 ca         1 3GX      -0.089000
     15 CAO          4.4770    -0.6260    -0.6140 ca         1 3GX      -0.110500
     16 CAP          5.0150     0.5000    -0.0060 ca         1 3GX      -0.094000
     17 CAQ          4.1750     1.4030     0.6330 ca         1 3GX      -0.110500
     18 CAR          2.8080     1.1830     0.6660 ca         1 3GX      -0.089000
     19 H1           0.2630     1.8490    -0.1460 ha         1 3GX       0.196000
     20 H3          -1.5130     3.0450    -1.3520 h1         1 3GX       0.037700
     21 H4          -2.8230     3.5860    -0.3030 h1         1 3GX       0.037700
     22 H5          -1.2440     3.2700     0.3850 h1         1 3GX       0.037700
     23 H6          -4.3850     2.1390    -0.0490 h1         1 3GX       0.039200
     24 H7          -3.9770     1.0970    -1.4070 h1         1 3GX       0.039200
     25 H8          -4.1390     0.2810     1.5290 hc         1 3GX       0.050700
     26 H9          -5.2810    -0.1490     0.2650 hc         1 3GX       0.050700
     27 H10         -3.5380    -1.9520     0.8260 hc         1 3GX       0.054200
     28 H11         -3.6760    -1.5450    -0.8660 hc         1 3GX       0.054200
     29 H12          2.7080    -1.7220    -1.0850 ha         1 3GX       0.119500
     30 H13          5.1210    -1.3330    -1.1190 ha         1 3GX       0.118000
     31 H14          6.0830     0.6730    -0.0300 ha         1 3GX       0.117000
     32 H15          4.5870     2.2800     1.1160 ha         1 3GX       0.118000
     33 H16          2.1650     1.8820     1.1860 ha         1 3GX       0.119500
     34 H2           1.0400    -2.1900     0.3090 hn         1 3GX       0.326500
@<TRIPOS>BOND
     1     1     2 1   
     2     1    12 2   
     3     1    19 1   
     4     2     3 1   
     5     2     8 2   
     6     3     4 1   
     7     3     5 1   
     8     4    20 1   
     9     4    21 1   
    10     4    22 1   
    11     5     6 1   
    12     5    23 1   
    13     5    24 1   
    14     6     7 1   
    15     6    25 1   
    16     6    26 1   
    17     7     8 1   
    18     7    27 1   
    19     7    28 1   
    20     8     9 1   
    21     9    10 2   
    22     9    11 1   
    23    11    12 1   
    24    11    34 1   
    25    12    13 1   
    26    13    14 ar  
    27    13    18 ar  
    28    14    15 ar  
    29    14    29 1   
    30    15    16 ar  
    31    15    30 1   
    32    16    17 ar  
    33    16    31 1   
    34    17    18 ar  
    35    17    32 1   
    36    18    33 1   
@<TRIPOS>SUBSTRUCTURE
     1 3GX         1 TEMP              0 ****  ****    0 ROOT
