@<TRIPOS>MOLECULE
3GX
   34    36     1     0     0
SMALL
No Charge or Current Charge


@<TRIPOS>ATOM
      1 CAH         -0.1120     0.8470    -0.0250 cc         1 3GX      -0.328000
      2 CAG         -1.5210     0.5640    -0.0480 cc         1 3GX       0.277000
      3 NAB         -2.4480     1.6030    -0.0410 nh         1 3GX      -0.675400
      4 CAA         -2.0710     3.0340     0.0480 c3         1 3GX       0.212100
      5 CAC         -3.8960     1.3130    -0.2140 c6         1 3GX       0.224800
      6 CAD         -4.2720    -0.0200     0.4550 c6         1 3GX      -0.090400
      7 CAE         -3.3940    -1.1580    -0.0960 c6         1 3GX       0.001800
      8 CAF         -1.9260    -0.7570    -0.0800 cd         1 3GX      -0.330400
      9 CAK         -0.9370    -1.8560    -0.1090 c          1 3GX       0.576200
     10 OAL         -1.2260    -3.0420    -0.1540 o          1 3GX      -0.589000
     11 NAJ          0.3670    -1.4550    -0.0840 ns         1 3GX      -0.369100
     12 CAI          0.8330    -0.1610    -0.0400 cd         1 3GX       0.148400
     13 CAM          2.3090     0.0590    -0.0170 ca         1 3GX      -0.080800
     14 CAN          3.2060    -1.0420    -0.0310 ca         1 3GX      -0.089000
     15 CAO          4.5980    -0.8460    -0.0100 ca         1 3GX      -0.110500
     16 CAP          5.1290     0.4500     0.0260 ca         1 3GX      -0.094000
     17 CAQ          4.2640     1.5510     0.0410 ca         1 3GX      -0.110500
     18 CAR          2.8710     1.3610     0.0200 ca         1 3GX      -0.089000
     19 H1           0.1970     1.8790     0.0020 ha         1 3GX       0.196000
     20 H3          -1.4620     3.3230    -0.8180 h1         1 3GX       0.037700
     21 H4          -2.9590     3.6810     0.0680 h1         1 3GX       0.037700
     22 H5          -1.4960     3.2210     0.9640 h1         1 3GX       0.037700
     23 H6          -4.5110     2.1140     0.2230 h1         1 3GX       0.039200
     24 H7          -4.1370     1.2630    -1.2860 h1         1 3GX       0.039200
     25 H8          -4.1300     0.0640     1.5410 hc         1 3GX       0.050700
     26 H9          -5.3340    -0.2420     0.2890 hc         1 3GX       0.050700
     27 H10         -3.5720    -2.0650     0.4990 hc         1 3GX       0.054200
     28 H11         -3.7050    -1.3970    -1.1230 hc         1 3GX       0.054200
     29 H12          2.8440    -2.0650    -0.0590 ha         1 3GX       0.119500
     30 H13          5.2660    -1.7050    -0.0220 ha         1 3GX       0.118000
     31 H14          6.2070     0.6000     0.0420 ha         1 3GX       0.117000
     32 H15          4.6720     2.5600     0.0690 ha         1 3GX       0.118000
     33 H16          2.2480     2.2480     0.0330 ha         1 3GX       0.119500
     34 H2           1.0260    -2.2180    -0.1030 hn         1 3GX       0.326500
@<TRIPOS>BOND
     1     1     2 1   
     2     1    12 2   
     3     1    19 1   
     4     2     3 1   
     5     2     8 2   
     6     3     4 1   
     7     3     5 1   
     8     4    20 1   
     9     4    21 1   
    10     4    22 1   
    11     5     6 1   
    12     5    23 1   
    13     5    24 1   
    14     6     7 1   
    15     6    25 1   
    16     6    26 1   
    17     7     8 1   
    18     7    27 1   
    19     7    28 1   
    20     8     9 1   
    21     9    10 2   
    22     9    11 1   
    23    11    12 1   
    24    11    34 1   
    25    12    13 1   
    26    13    14 ar  
    27    13    18 ar  
    28    14    15 ar  
    29    14    29 1   
    30    15    16 ar  
    31    15    30 1   
    32    16    17 ar  
    33    16    31 1   
    34    17    18 ar  
    35    17    32 1   
    36    18    33 1   
@<TRIPOS>SUBSTRUCTURE
     1 3GX         1 TEMP              0 ****  ****    0 ROOT
