@<TRIPOS>MOLECULE
3GY
   24    24     1     0     0
SMALL
No Charge or Current Charge


@<TRIPOS>ATOM
      1 CAA          3.5790     0.1930     0.8180 c3         1 3GY      -0.089100
      2 CAH          2.0740    -0.1500     0.8550 c3         1 3GY      -0.070400
      3 CAJ          1.2700     0.3370    -0.3800 c3         1 3GY      -0.016400
      4 CAB          1.7170    -0.3420    -1.6980 c3         1 3GY      -0.083100
      5 CAI         -0.2350     0.1580    -0.1570 ca         1 3GY      -0.074300
      6 CAF         -1.0800     1.2850    -0.0960 ca         1 3GY      -0.107000
      7 CAD         -2.4620     1.1300     0.1100 ca         1 3GY      -0.110500
      8 CAC         -3.0120    -0.1540     0.2580 ca         1 3GY      -0.113000
      9 CAE         -2.1780    -1.2820     0.1990 ca         1 3GY      -0.110500
     10 CAG         -0.7970    -1.1280    -0.0070 ca         1 3GY      -0.107000
     11 H1           4.0580    -0.1040     1.7590 hc         1 3GY       0.031700
     12 H2           4.0860    -0.3360     0.0030 hc         1 3GY       0.031700
     13 H3           3.7300     1.2710     0.6840 hc         1 3GY       0.031700
     14 H4           1.9590    -1.2340     0.9700 hc         1 3GY       0.040700
     15 H5           1.6420     0.3070     1.7540 hc         1 3GY       0.040700
     16 H6           1.4780     1.4080    -0.4950 hc         1 3GY       0.047700
     17 H7           1.0850    -0.0100    -2.5310 hc         1 3GY       0.034367
     18 H8           2.7530    -0.0820    -1.9430 hc         1 3GY       0.034367
     19 H9           1.6440    -1.4330    -1.6260 hc         1 3GY       0.034367
     20 H10         -0.6680     2.2860    -0.2080 ha         1 3GY       0.109500
     21 H11         -3.1060     2.0060     0.1560 ha         1 3GY       0.110500
     22 H12         -4.0810    -0.2740     0.4180 ha         1 3GY       0.111000
     23 H13         -2.6020    -2.2780     0.3140 ha         1 3GY       0.110500
     24 H14         -0.1630    -2.0110    -0.0490 ha         1 3GY       0.109500
@<TRIPOS>BOND
     1     1     2 1   
     2     1    11 1   
     3     1    12 1   
     4     1    13 1   
     5     2     3 1   
     6     2    14 1   
     7     2    15 1   
     8     3     4 1   
     9     3     5 1   
    10     3    16 1   
    11     4    17 1   
    12     4    18 1   
    13     4    19 1   
    14     5     6 ar  
    15     5    10 ar  
    16     6     7 ar  
    17     6    20 1   
    18     7     8 ar  
    19     7    21 1   
    20     8     9 ar  
    21     8    22 1   
    22     9    10 ar  
    23     9    23 1   
    24    10    24 1   
@<TRIPOS>SUBSTRUCTURE
     1 3GY         1 TEMP              0 ****  ****    0 ROOT
