@<TRIPOS>MOLECULE
3GY
   24    24     1     0     0
SMALL
abcg2


@<TRIPOS>ATOM
      1 CAA          3.5400     0.1540     0.7860 c3         1 3GY      -0.089100
      2 CAH          2.0490    -0.1470     0.8520 c3         1 3GY      -0.070400
      3 CAJ          1.2590     0.3520    -0.3650 c3         1 3GY      -0.016400
      4 CAB          1.7180    -0.3030    -1.6690 c3         1 3GY      -0.083100
      5 CAI         -0.2250     0.1680    -0.1530 ca         1 3GY      -0.074300
      6 CAF         -1.0820     1.2650    -0.1150 ca         1 3GY      -0.107000
      7 CAD         -2.4470     1.1050     0.0890 ca         1 3GY      -0.110500
      8 CAC         -2.9810    -0.1650     0.2580 ca         1 3GY      -0.113000
      9 CAE         -2.1390    -1.2700     0.2200 ca         1 3GY      -0.110500
     10 CAG         -0.7760    -1.1030     0.0160 ca         1 3GY      -0.107000
     11 H1           4.0350    -0.1290     1.7160 hc         1 3GY       0.031700
     12 H2           4.0320    -0.3890    -0.0220 hc         1 3GY       0.031700
     13 H3           3.7190     1.2190     0.6270 hc         1 3GY       0.031700
     14 H4           1.8970    -1.2260     0.9680 hc         1 3GY       0.040700
     15 H5           1.6290     0.3150     1.7500 hc         1 3GY       0.040700
     16 H6           1.4450     1.4290    -0.4570 hc         1 3GY       0.047700
     17 H7           1.1490     0.0770    -2.5180 hc         1 3GY       0.034367
     18 H8           2.7720    -0.1010    -1.8630 hc         1 3GY       0.034367
     19 H9           1.5910    -1.3870    -1.6400 hc         1 3GY       0.034367
     20 H10         -0.6760     2.2620    -0.2460 ha         1 3GY       0.109500
     21 H11         -3.0940     1.9730     0.1170 ha         1 3GY       0.110500
     22 H12         -4.0440    -0.2940     0.4150 ha         1 3GY       0.111000
     23 H13         -2.5440    -2.2650     0.3520 ha         1 3GY       0.110500
     24 H14         -0.1360    -1.9770    -0.0080 ha         1 3GY       0.109500
@<TRIPOS>BOND
     1     1     2 1   
     2     1    11 1   
     3     1    12 1   
     4     1    13 1   
     5     2     3 1   
     6     2    14 1   
     7     2    15 1   
     8     3     4 1   
     9     3     5 1   
    10     3    16 1   
    11     4    17 1   
    12     4    18 1   
    13     4    19 1   
    14     5     6 ar  
    15     5    10 ar  
    16     6     7 ar  
    17     6    20 1   
    18     7     8 ar  
    19     7    21 1   
    20     8     9 ar  
    21     8    22 1   
    22     9    10 ar  
    23     9    23 1   
    24    10    24 1   
@<TRIPOS>SUBSTRUCTURE
     1 3GY         1 TEMP              0 ****  ****    0 ROOT
