@<TRIPOS>MOLECULE
3GZ
   30    30     1     0     0
SMALL
abcg2


@<TRIPOS>ATOM
      1 CAA         -5.7060    -0.0050    -0.8560 c3         1 3GZ      -0.088100
      2 CAG         -4.6050    -0.0030     0.1950 c3         1 3GZ      -0.075400
      3 CAH         -3.2070     0.0040    -0.4110 c3         1 3GZ      -0.075400
      4 CAI         -2.0990     0.0070     0.6340 c3         1 3GZ      -0.076400
      5 CAJ         -0.7010     0.0180     0.0300 c3         1 3GZ      -0.073400
      6 CAK          0.3990     0.0220     1.0930 c3         1 3GZ      -0.031100
      7 CAL          1.7760     0.0210     0.4910 ca         1 3GZ      -0.077300
      8 CAE          2.4230    -1.1770     0.1900 ca         1 3GZ      -0.108000
      9 CAC          3.6770    -1.1820    -0.4060 ca         1 3GZ      -0.110000
     10 CAB          4.3080     0.0170    -0.7150 ca         1 3GZ      -0.112000
     11 CAD          3.6740     1.2170    -0.4200 ca         1 3GZ      -0.110000
     12 CAF          2.4200     1.2160     0.1770 ca         1 3GZ      -0.108000
     13 H1          -6.6970    -0.0090    -0.4000 hc         1 3GZ       0.031367
     14 H2          -5.6410     0.8760    -1.4960 hc         1 3GZ       0.031367
     15 H3          -5.6340    -0.8840    -1.4980 hc         1 3GZ       0.031367
     16 H4          -4.7190     0.8700     0.8470 hc         1 3GZ       0.036700
     17 H5          -4.7130    -0.8780     0.8440 hc         1 3GZ       0.036700
     18 H6          -3.0900    -0.8690    -1.0630 hc         1 3GZ       0.037700
     19 H7          -3.0980     0.8800    -1.0600 hc         1 3GZ       0.037700
     20 H8          -2.2170     0.8790     1.2880 hc         1 3GZ       0.036700
     21 H9          -2.2070    -0.8710     1.2810 hc         1 3GZ       0.036700
     22 H10         -0.5750    -0.8550    -0.6200 hc         1 3GZ       0.042700
     23 H11         -0.5860     0.8960    -0.6150 hc         1 3GZ       0.042700
     24 H12          0.2760     0.9010     1.7320 hc         1 3GZ       0.045700
     25 H13          0.2760    -0.8510     1.7390 hc         1 3GZ       0.045700
     26 H14          1.9420    -2.1180     0.4300 ha         1 3GZ       0.110000
     27 H15          4.1640    -2.1230    -0.6260 ha         1 3GZ       0.111000
     28 H16          5.2860     0.0160    -1.1790 ha         1 3GZ       0.111000
     29 H17          4.1580     2.1580    -0.6500 ha         1 3GZ       0.111000
     30 H18          1.9360     2.1590     0.4060 ha         1 3GZ       0.110000
@<TRIPOS>BOND
     1     1     2 1   
     2     1    13 1   
     3     1    14 1   
     4     1    15 1   
     5     2     3 1   
     6     2    16 1   
     7     2    17 1   
     8     3     4 1   
     9     3    18 1   
    10     3    19 1   
    11     4     5 1   
    12     4    20 1   
    13     4    21 1   
    14     5     6 1   
    15     5    22 1   
    16     5    23 1   
    17     6     7 1   
    18     6    24 1   
    19     6    25 1   
    20     7     8 ar  
    21     7    12 ar  
    22     8     9 ar  
    23     8    26 1   
    24     9    10 ar  
    25     9    27 1   
    26    10    11 ar  
    27    10    28 1   
    28    11    12 ar  
    29    11    29 1   
    30    12    30 1   
@<TRIPOS>SUBSTRUCTURE
     1 3GZ         1 TEMP              0 ****  ****    0 ROOT
