@<TRIPOS>MOLECULE
3GZ
   30    30     1     0     0
SMALL
No Charge or Current Charge


@<TRIPOS>ATOM
      1 CAA         -5.7700    -0.0030    -0.8680 c3         1 3GZ      -0.088100
      2 CAG         -4.6550     0.0020     0.1950 c3         1 3GZ      -0.075400
      3 CAH         -3.2370     0.0040    -0.4160 c3         1 3GZ      -0.075400
      4 CAI         -2.1190     0.0090     0.6490 c3         1 3GZ      -0.076400
      5 CAJ         -0.7010     0.0110     0.0380 c3         1 3GZ      -0.073400
      6 CAK          0.4190     0.0160     1.1000 c3         1 3GZ      -0.031100
      7 CAL          1.8060     0.0180     0.4700 ca         1 3GZ      -0.077300
      8 CAE          2.4550    -1.1970     0.1780 ca         1 3GZ      -0.108000
      9 CAC          3.7330    -1.1960    -0.4070 ca         1 3GZ      -0.110000
     10 CAB          4.3690     0.0220    -0.7050 ca         1 3GZ      -0.112000
     11 CAD          3.7250     1.2370    -0.4180 ca         1 3GZ      -0.110000
     12 CAF          2.4470     1.2350     0.1680 ca         1 3GZ      -0.108000
     13 H1          -6.7560    -0.0050    -0.3880 hc         1 3GZ       0.031367
     14 H2          -5.7010     0.8850    -1.5080 hc         1 3GZ       0.031367
     15 H3          -5.6970    -0.8950    -1.5030 hc         1 3GZ       0.031367
     16 H4          -4.7760     0.8850     0.8350 hc         1 3GZ       0.036700
     17 H5          -4.7720    -0.8790     0.8390 hc         1 3GZ       0.036700
     18 H6          -3.1190    -0.8790    -1.0570 hc         1 3GZ       0.037700
     19 H7          -3.1240     0.8840    -1.0610 hc         1 3GZ       0.037700
     20 H8          -2.2360     0.8920     1.2900 hc         1 3GZ       0.036700
     21 H9          -2.2320    -0.8720     1.2940 hc         1 3GZ       0.036700
     22 H10         -0.5820    -0.8720    -0.6030 hc         1 3GZ       0.042700
     23 H11         -0.5860     0.8910    -0.6070 hc         1 3GZ       0.042700
     24 H12          0.2980     0.8950     1.7460 hc         1 3GZ       0.045700
     25 H13          0.3020    -0.8590     1.7510 hc         1 3GZ       0.045700
     26 H14          1.9690    -2.1440     0.4040 ha         1 3GZ       0.110000
     27 H15          4.2300    -2.1370    -0.6300 ha         1 3GZ       0.111000
     28 H16          5.3580     0.0230    -1.1580 ha         1 3GZ       0.111000
     29 H17          4.2160     2.1800    -0.6490 ha         1 3GZ       0.111000
     30 H18          1.9540     2.1810     0.3850 ha         1 3GZ       0.110000
@<TRIPOS>BOND
     1     1     2 1   
     2     1    13 1   
     3     1    14 1   
     4     1    15 1   
     5     2     3 1   
     6     2    16 1   
     7     2    17 1   
     8     3     4 1   
     9     3    18 1   
    10     3    19 1   
    11     4     5 1   
    12     4    20 1   
    13     4    21 1   
    14     5     6 1   
    15     5    22 1   
    16     5    23 1   
    17     6     7 1   
    18     6    24 1   
    19     6    25 1   
    20     7     8 ar  
    21     7    12 ar  
    22     8     9 ar  
    23     8    26 1   
    24     9    10 ar  
    25     9    27 1   
    26    10    11 ar  
    27    10    28 1   
    28    11    12 ar  
    29    11    29 1   
    30    12    30 1   
@<TRIPOS>SUBSTRUCTURE
     1 3GZ         1 TEMP              0 ****  ****    0 ROOT
