@<TRIPOS>MOLECULE
3H0
   21    21     1     0     0
SMALL
No Charge or Current Charge


@<TRIPOS>ATOM
      1 CAA          3.8240    -0.0120    -0.2190 c3         1 3H0      -0.090100
      2 CAG          2.3210    -0.0060    -0.5560 c3         1 3H0      -0.074400
      3 CAH          1.4170    -0.0120     0.6950 c3         1 3H0      -0.032100
      4 CAI         -0.0620    -0.0060     0.3340 ca         1 3H0      -0.077300
      5 CAE         -0.7490     1.2130     0.1690 ca         1 3H0      -0.108500
      6 CAC         -2.1140     1.2180    -0.1690 ca         1 3H0      -0.109000
      7 CAB         -2.7990     0.0040    -0.3440 ca         1 3H0      -0.113000
      8 CAD         -2.1190    -1.2140    -0.1830 ca         1 3H0      -0.109000
      9 CAF         -0.7540    -1.2200     0.1550 ca         1 3H0      -0.108500
     10 H1           4.0900    -0.9050     0.3590 hc         1 3H0       0.032033
     11 H2           4.4220    -0.0080    -1.1380 hc         1 3H0       0.032033
     12 H3           4.0940     0.8740     0.3690 hc         1 3H0       0.032033
     13 H4           2.0930     0.8790    -1.1630 hc         1 3H0       0.041700
     14 H5           2.0890    -0.8840    -1.1730 hc         1 3H0       0.041700
     15 H6           1.6520    -0.8930     1.3050 hc         1 3H0       0.045700
     16 H7           1.6560     0.8610     1.3150 hc         1 3H0       0.045700
     17 H8          -0.2240     2.1570     0.3010 ha         1 3H0       0.109500
     18 H9          -2.6390     2.1630    -0.2950 ha         1 3H0       0.111000
     19 H10         -3.8550     0.0080    -0.6060 ha         1 3H0       0.111000
     20 H11         -2.6490    -2.1550    -0.3200 ha         1 3H0       0.111000
     21 H12         -0.2350    -2.1670     0.2750 ha         1 3H0       0.109500
@<TRIPOS>BOND
     1     1     2 1   
     2     1    10 1   
     3     1    11 1   
     4     1    12 1   
     5     2     3 1   
     6     2    13 1   
     7     2    14 1   
     8     3     4 1   
     9     3    15 1   
    10     3    16 1   
    11     4     5 ar  
    12     4     9 ar  
    13     5     6 ar  
    14     5    17 1   
    15     6     7 ar  
    16     6    18 1   
    17     7     8 ar  
    18     7    19 1   
    19     8     9 ar  
    20     8    20 1   
    21     9    21 1   
@<TRIPOS>SUBSTRUCTURE
     1 3H0         1 TEMP              0 ****  ****    0 ROOT
