@<TRIPOS>MOLECULE
3H0
   21    21     1     0     0
SMALL
bcc


@<TRIPOS>ATOM
      1 CAA          3.7820     0.0420    -0.2200 c3         1 3H0      -0.090100
      2 CAG          2.2980     0.0790    -0.5570 c3         1 3H0      -0.074400
      3 CAH          1.4140    -0.0960     0.6800 c3         1 3H0      -0.032100
      4 CAI         -0.0510    -0.0610     0.3470 ca         1 3H0      -0.077300
      5 CAE         -0.6910     1.1510     0.0860 ca         1 3H0      -0.126500
      6 CAC         -2.0340     1.1900    -0.2610 ca         1 3H0      -0.127000
      7 CAB         -2.7660     0.0120    -0.3520 ca         1 3H0      -0.131000
      8 CAD         -2.1430    -1.2010    -0.0920 ca         1 3H0      -0.127000
      9 CAF         -0.7970    -1.2340     0.2530 ca         1 3H0      -0.126500
     10 H1           4.0610    -0.9120     0.2310 hc         1 3H0       0.032033
     11 H2           4.3950     0.1780    -1.1110 hc         1 3H0       0.032033
     12 H3           4.0460     0.8300     0.4870 hc         1 3H0       0.032033
     13 H4           2.0540     1.0270    -1.0440 hc         1 3H0       0.041700
     14 H5           2.0630    -0.7060    -1.2820 hc         1 3H0       0.041700
     15 H6           1.6600    -1.0440     1.1650 hc         1 3H0       0.045700
     16 H7           1.6490     0.6930     1.4010 hc         1 3H0       0.045700
     17 H8          -0.1290     2.0760     0.1590 ha         1 3H0       0.127500
     18 H9          -2.5110     2.1410    -0.4590 ha         1 3H0       0.129000
     19 H10         -3.8150     0.0410    -0.6180 ha         1 3H0       0.129000
     20 H11         -2.7040    -2.1240    -0.1590 ha         1 3H0       0.129000
     21 H12         -0.3210    -2.1860     0.4580 ha         1 3H0       0.127500
@<TRIPOS>BOND
     1     1     2 1   
     2     1    10 1   
     3     1    11 1   
     4     1    12 1   
     5     2     3 1   
     6     2    13 1   
     7     2    14 1   
     8     3     4 1   
     9     3    15 1   
    10     3    16 1   
    11     4     5 ar  
    12     4     9 ar  
    13     5     6 ar  
    14     5    17 1   
    15     6     7 ar  
    16     6    18 1   
    17     7     8 ar  
    18     7    19 1   
    19     8     9 ar  
    20     8    20 1   
    21     9    21 1   
@<TRIPOS>SUBSTRUCTURE
     1 3H0         1 TEMP              0 ****  ****    0 ROOT
