@<TRIPOS>MOLECULE
3H1
   57    58     1     0     0
SMALL
abcg2


@<TRIPOS>ATOM
      1 C01         -2.9630     0.7920    -0.5360 ca         1 3H1       0.254100
      2 C02         -4.0460     1.4270     0.1050 ca         1 3H1      -0.277600
      3 C03         -5.1750     0.6650     0.4860 ca         1 3H1       0.062700
      4 C04         -5.1640    -0.6910     0.2220 ca         1 3H1      -0.040000
      5 C05         -4.0840    -1.3180    -0.4230 ca         1 3H1       0.230100
      6 C06         -2.9750    -0.5770    -0.8170 ca         1 3H1      -0.239300
      7 C07         -4.0260     2.8580     0.4100 c          1 3H1       0.591500
      8 C08         -6.3540     1.3150     1.1570 c3         1 3H1      -0.064800
      9 O09         -1.9110     1.5370    -0.8780 oh         1 3H1      -0.502100
     10 O10         -3.1770     3.6600     0.0830 o          1 3H1      -0.507100
     11 O11         -4.0820    -2.6240    -0.6870 oh         1 3H1      -0.525100
     12 CL12        -6.4970    -1.7220     0.6640 cl         1 3H1      -0.207000
     13 C13         -1.8210    -1.2180    -1.5520 c3         1 3H1       0.011100
     14 C14         -0.5220    -1.0790    -0.8080 c2         1 3H1      -0.242200
     15 C15          0.6790    -0.7310    -1.3030 ce         1 3H1      -0.071200
     16 C16          0.9330    -0.4110    -2.7460 c3         1 3H1      -0.063900
     17 C17          1.8110    -0.6660    -0.3770 ce         1 3H1      -0.190000
     18 C18          3.0620    -0.3470    -0.7160 c2         1 3H1      -0.191200
     19 C19          4.2600    -0.2600     0.1900 c6         1 3H1       0.007200
     20 C20          5.3380    -1.2290    -0.3760 c6         1 3H1      -0.055700
     21 C21          6.6850    -1.0630     0.3230 c6         1 3H1      -0.067400
     22 C22          7.1940     0.3770     0.2740 c6         1 3H1      -0.183400
     23 C23          6.1400     1.3270     0.7680 c          1 3H1       0.576100
     24 C24          4.8000     1.2060     0.0750 c6         1 3H1      -0.157700
     25 C25          4.9120    -2.6930    -0.3380 c3         1 3H1      -0.087100
     26 O26          6.3480     2.1320     1.6490 o          1 3H1      -0.516100
     27 C27          3.8180     2.2730     0.5300 c3         1 3H1      -0.078100
     28 C28          3.9210    -0.5880     1.6420 c3         1 3H1      -0.086100
     29 H07         -4.8850     3.2060     1.0040 h4         1 3H1      -0.019800
     30 H08         -6.7390     2.1440     0.5650 hc         1 3H1       0.058033
     31 H08A        -7.1740     0.6200     1.3020 hc         1 3H1       0.058033
     32 H08B        -6.0850     1.7070     2.1380 hc         1 3H1       0.058033
     33 HO09        -1.1490     0.9740    -1.0800 ho         1 3H1       0.486000
     34 HO11        -4.8920    -3.0490    -0.3730 ho         1 3H1       0.487000
     35 H13         -2.0280    -2.2780    -1.7030 hc         1 3H1       0.068200
     36 H13A        -1.7520    -0.7900    -2.5560 hc         1 3H1       0.068200
     37 H14         -0.5820    -1.3050     0.2540 ha         1 3H1       0.180000
     38 H16          1.3210     0.6030    -2.8620 hc         1 3H1       0.046033
     39 H16A         1.6850    -1.0850    -3.1600 hc         1 3H1       0.046033
     40 H16B         0.0450    -0.4990    -3.3660 hc         1 3H1       0.046033
     41 H18          3.2850    -0.1160    -1.7550 ha         1 3H1       0.167000
     42 H20          5.4810    -0.9480    -1.4290 hc         1 3H1       0.044700
     43 H21          6.6090    -1.3950     1.3620 hc         1 3H1       0.048200
     44 H21A         7.4210    -1.7170    -0.1510 hc         1 3H1       0.048200
     45 H22          8.1120     0.4950     0.8520 hc         1 3H1       0.065700
     46 H22A         7.4140     0.6400    -0.7660 hc         1 3H1       0.065700
     47 H24          5.0110     1.3600    -0.9940 hc         1 3H1       0.059700
     48 H25          3.9250    -2.8460    -0.7730 hc         1 3H1       0.037033
     49 H25A         5.6200    -3.3050    -0.8970 hc         1 3H1       0.037033
     50 H25B         4.8900    -3.0750     0.6840 hc         1 3H1       0.037033
     51 H27          3.6340     2.2370     1.6030 hc         1 3H1       0.043700
     52 H27A         4.1950     3.2690     0.2950 hc         1 3H1       0.043700
     53 H27B         2.8600     2.1570     0.0240 hc         1 3H1       0.043700
     54 H28          3.5490    -1.6060     1.7480 hc         1 3H1       0.040367
     55 H28A         4.7920    -0.4950     2.2920 hc         1 3H1       0.040367
     56 H28B         3.1530     0.0760     2.0380 hc         1 3H1       0.040367
     57 H29          1.5750    -0.8980     0.6570 ha         1 3H1       0.177000
@<TRIPOS>BOND
     1     1     2 ar  
     2     1     6 ar  
     3     1     9 1   
     4     2     3 ar  
     5     2     7 1   
     6     3     4 ar  
     7     3     8 1   
     8     4     5 ar  
     9     4    12 1   
    10     5     6 ar  
    11     5    11 1   
    12     6    13 1   
    13     7    10 2   
    14     7    29 1   
    15     8    30 1   
    16     8    31 1   
    17     8    32 1   
    18     9    33 1   
    19    11    34 1   
    20    13    14 1   
    21    13    35 1   
    22    13    36 1   
    23    14    15 2   
    24    14    37 1   
    25    15    16 1   
    26    15    17 1   
    27    16    38 1   
    28    16    39 1   
    29    16    40 1   
    30    17    18 2   
    31    17    57 1   
    32    18    19 1   
    33    18    41 1   
    34    19    20 1   
    35    19    24 1   
    36    19    28 1   
    37    20    21 1   
    38    20    25 1   
    39    20    42 1   
    40    21    22 1   
    41    21    43 1   
    42    21    44 1   
    43    22    23 1   
    44    22    45 1   
    45    22    46 1   
    46    23    24 1   
    47    23    26 2   
    48    24    27 1   
    49    24    47 1   
    50    25    48 1   
    51    25    49 1   
    52    25    50 1   
    53    27    51 1   
    54    27    52 1   
    55    27    53 1   
    56    28    54 1   
    57    28    55 1   
    58    28    56 1   
@<TRIPOS>SUBSTRUCTURE
     1 3H1         1 TEMP              0 ****  ****    0 ROOT
