@<TRIPOS>MOLECULE
3H1
   57    58     1     0     0
SMALL
No Charge or Current Charge


@<TRIPOS>ATOM
      1 C01         -3.1600     0.8700    -0.4310 ca         1 3H1       0.254100
      2 C02         -4.2780     1.2380     0.3450 ca         1 3H1      -0.277600
      3 C03         -5.2840     0.2820     0.6310 ca         1 3H1       0.062700
      4 C04         -5.1370    -1.0360     0.1410 ca         1 3H1      -0.040000
      5 C05         -4.0230    -1.3860    -0.6460 ca         1 3H1       0.230100
      6 C06         -3.0260    -0.4360    -0.9460 ca         1 3H1      -0.239300
      7 C07         -4.3890     2.6330     0.9020 c          1 3H1       0.591500
      8 C08         -6.5160     0.6640     1.4620 c3         1 3H1      -0.064800
      9 O09         -2.1610     1.7680    -0.6550 oh         1 3H1      -0.502100
     10 O10         -4.1230     3.6510     0.2720 o          1 3H1      -0.507100
     11 O11         -3.9200    -2.6670    -1.1070 oh         1 3H1      -0.525100
     12 Cl12        -6.3400    -2.2890     0.5070 cl         1 3H1      -0.207000
     13 C13         -1.8100    -0.7990    -1.8150 c3         1 3H1       0.011100
     14 C14         -0.5120    -0.7410    -1.0280 c2         1 3H1      -0.242200
     15 C15          0.7300    -0.4610    -1.4890 ce         1 3H1      -0.071200
     16 C16          1.0260    -0.2050    -2.9650 c3         1 3H1      -0.063900
     17 C17          1.8680    -0.4640    -0.5500 ce         1 3H1      -0.190000
     18 C18          3.1320    -0.0570    -0.8330 c2         1 3H1      -0.191200
     19 C19          4.3270    -0.0600     0.1400 c6         1 3H1       0.007200
     20 C20          5.1460    -1.3960    -0.0610 c6         1 3H1      -0.055700
     21 C21          6.4670    -1.4220     0.7610 c6         1 3H1      -0.067400
     22 C22          7.3680    -0.2030     0.4530 c6         1 3H1      -0.183400
     23 C23          6.5960     1.1150     0.5540 c          1 3H1       0.576100
     24 C24          5.2560     1.1590    -0.2200 c6         1 3H1      -0.157700
     25 C25          4.3310    -2.7000     0.2000 c3         1 3H1      -0.087100
     26 O26          7.0100     2.0470     1.2340 o          1 3H1      -0.516100
     27 C27          4.5800     2.5690    -0.1530 c3         1 3H1      -0.078100
     28 C28          3.8260     0.1010     1.6190 c3         1 3H1      -0.086100
     29 H07         -4.7890     2.7080     1.9370 h4         1 3H1      -0.019800
     30 H08         -6.8030     1.7120     1.3230 hc         1 3H1       0.058033
     31 H08A        -7.4020     0.0830     1.1860 hc         1 3H1       0.058033
     32 H08B        -6.3310     0.5020     2.5310 hc         1 3H1       0.058033
     33 HO09        -1.4080     1.2690    -1.0360 ho         1 3H1       0.486000
     34 HO11        -4.7060    -3.1550    -0.7800 ho         1 3H1       0.487000
     35 H13         -1.9060    -1.7940    -2.2660 hc         1 3H1       0.068200
     36 H13A        -1.7780    -0.1120    -2.6700 hc         1 3H1       0.068200
     37 H14         -0.6520    -0.9590     0.0330 ha         1 3H1       0.180000
     38 H16          1.1470     0.8660    -3.1630 hc         1 3H1       0.046033
     39 H16A         1.9430    -0.7130    -3.2850 hc         1 3H1       0.046033
     40 H16B         0.2340    -0.5770    -3.6240 hc         1 3H1       0.046033
     41 H18          3.3700     0.3130    -1.8300 ha         1 3H1       0.167000
     42 H20          5.4240    -1.4550    -1.1230 hc         1 3H1       0.044700
     43 H21          6.2430    -1.4520     1.8370 hc         1 3H1       0.048200
     44 H21A         7.0240    -2.3440     0.5440 hc         1 3H1       0.048200
     45 H22          8.2710    -0.1760     1.0770 hc         1 3H1       0.065700
     46 H22A         7.6560    -0.3130    -0.6010 hc         1 3H1       0.065700
     47 H24          5.5440     0.9760    -1.2650 hc         1 3H1       0.059700
     48 H25          3.4260    -2.7490    -0.4170 hc         1 3H1       0.037033
     49 H25A         4.9280    -3.5860    -0.0470 hc         1 3H1       0.037033
     50 H25B         4.0310    -2.7970     1.2490 hc         1 3H1       0.037033
     51 H27          4.3270     2.8510     0.8750 hc         1 3H1       0.043700
     52 H27A         5.2490     3.3430    -0.5490 hc         1 3H1       0.043700
     53 H27B         3.6580     2.6070    -0.7450 hc         1 3H1       0.043700
     54 H28          3.2820    -0.7780     1.9780 hc         1 3H1       0.040367
     55 H28A         4.6530     0.2660     2.3190 hc         1 3H1       0.040367
     56 H28B         3.1460     0.9550     1.7200 hc         1 3H1       0.040367
     57 H29          1.6320    -0.8320     0.4480 ha         1 3H1       0.177000
@<TRIPOS>BOND
     1     1     2 ar  
     2     1     6 ar  
     3     1     9 1   
     4     2     3 ar  
     5     2     7 1   
     6     3     4 ar  
     7     3     8 1   
     8     4     5 ar  
     9     4    12 1   
    10     5     6 ar  
    11     5    11 1   
    12     6    13 1   
    13     7    10 2   
    14     7    29 1   
    15     8    30 1   
    16     8    31 1   
    17     8    32 1   
    18     9    33 1   
    19    11    34 1   
    20    13    14 1   
    21    13    35 1   
    22    13    36 1   
    23    14    15 2   
    24    14    37 1   
    25    15    16 1   
    26    15    17 1   
    27    16    38 1   
    28    16    39 1   
    29    16    40 1   
    30    17    18 2   
    31    17    57 1   
    32    18    19 1   
    33    18    41 1   
    34    19    20 1   
    35    19    24 1   
    36    19    28 1   
    37    20    21 1   
    38    20    25 1   
    39    20    42 1   
    40    21    22 1   
    41    21    43 1   
    42    21    44 1   
    43    22    23 1   
    44    22    45 1   
    45    22    46 1   
    46    23    24 1   
    47    23    26 2   
    48    24    27 1   
    49    24    47 1   
    50    25    48 1   
    51    25    49 1   
    52    25    50 1   
    53    27    51 1   
    54    27    52 1   
    55    27    53 1   
    56    28    54 1   
    57    28    55 1   
    58    28    56 1   
@<TRIPOS>SUBSTRUCTURE
     1 3H1         1 TEMP              0 ****  ****    0 ROOT
