@<TRIPOS>MOLECULE
3H2
   27    27     1     0     0
SMALL
abcg2


@<TRIPOS>ATOM
      1 CAA          5.1840     0.0120    -0.1800 c3         1 3H2      -0.089100
      2 CAG          3.7610     0.0020    -0.7200 c3         1 3H2      -0.074400
      3 CAH          2.7100     0.0070     0.3810 c3         1 3H2      -0.076400
      4 CAI          1.2810     0.0070    -0.1480 c3         1 3H2      -0.073400
      5 CAJ          0.2410     0.0120     0.9720 c3         1 3H2      -0.031100
      6 CAK         -1.1690     0.0110     0.4510 ca         1 3H2      -0.077300
      7 CAE         -1.8340    -1.1860     0.1920 ca         1 3H2      -0.108000
      8 CAC         -3.1220    -1.1900    -0.3260 ca         1 3H2      -0.110000
      9 CAB         -3.7700     0.0080    -0.5950 ca         1 3H2      -0.113000
     10 CAD         -3.1180     1.2080    -0.3420 ca         1 3H2      -0.110000
     11 CAF         -1.8300     1.2070     0.1750 ca         1 3H2      -0.108000
     12 H1           5.3740    -0.8590     0.4510 hc         1 3H2       0.031367
     13 H2           5.9190     0.0030    -0.9860 hc         1 3H2       0.031367
     14 H3           5.3690     0.9010     0.4260 hc         1 3H2       0.031367
     15 H4           3.6110     0.8690    -1.3710 hc         1 3H2       0.037200
     16 H5           3.6180    -0.8790    -1.3540 hc         1 3H2       0.037200
     17 H6           2.8550    -0.8650     1.0280 hc         1 3H2       0.036700
     18 H7           2.8570     0.8840     1.0220 hc         1 3H2       0.036700
     19 H8           1.1280     0.8790    -0.7920 hc         1 3H2       0.041700
     20 H9           1.1260    -0.8710    -0.7840 hc         1 3H2       0.041700
     21 H10          0.3980    -0.8610     1.6120 hc         1 3H2       0.045700
     22 H11          0.3990     0.8910     1.6040 hc         1 3H2       0.045700
     23 H12         -1.3390    -2.1270     0.4040 ha         1 3H2       0.110000
     24 H13         -3.6230    -2.1320    -0.5150 ha         1 3H2       0.111000
     25 H14         -4.7760     0.0070    -0.9970 ha         1 3H2       0.111000
     26 H15         -3.6150     2.1490    -0.5440 ha         1 3H2       0.111000
     27 H16         -1.3320     2.1490     0.3740 ha         1 3H2       0.110000
@<TRIPOS>BOND
     1     1     2 1   
     2     1    12 1   
     3     1    13 1   
     4     1    14 1   
     5     2     3 1   
     6     2    15 1   
     7     2    16 1   
     8     3     4 1   
     9     3    17 1   
    10     3    18 1   
    11     4     5 1   
    12     4    19 1   
    13     4    20 1   
    14     5     6 1   
    15     5    21 1   
    16     5    22 1   
    17     6     7 ar  
    18     6    11 ar  
    19     7     8 ar  
    20     7    23 1   
    21     8     9 ar  
    22     8    24 1   
    23     9    10 ar  
    24     9    25 1   
    25    10    11 ar  
    26    10    26 1   
    27    11    27 1   
@<TRIPOS>SUBSTRUCTURE
     1 3H2         1 TEMP              0 ****  ****    0 ROOT
