@<TRIPOS>MOLECULE
3H2
   27    27     1     0     0
SMALL
No Charge or Current Charge


@<TRIPOS>ATOM
      1 CAA          5.2410     0.0070    -0.1900 c3         1 3H2      -0.089100
      2 CAG          3.7950     0.0040    -0.7220 c3         1 3H2      -0.074400
      3 CAH          2.7360     0.0110     0.4030 c3         1 3H2      -0.076400
      4 CAI          1.2870     0.0080    -0.1310 c3         1 3H2      -0.073400
      5 CAJ          0.2270     0.0150     0.9910 c3         1 3H2      -0.031100
      6 CAK         -1.1920     0.0120     0.4370 ca         1 3H2      -0.077300
      7 CAE         -1.8540    -1.2060     0.1840 ca         1 3H2      -0.108000
      8 CAC         -3.1620    -1.2090    -0.3310 ca         1 3H2      -0.110000
      9 CAB         -3.8160     0.0060    -0.5970 ca         1 3H2      -0.113000
     10 CAD         -3.1600     1.2240    -0.3480 ca         1 3H2      -0.110000
     11 CAF         -1.8520     1.2270     0.1670 ca         1 3H2      -0.108000
     12 H1           5.4290    -0.8790     0.4280 hc         1 3H2       0.031367
     13 H2           5.9540     0.0020    -1.0230 hc         1 3H2       0.031367
     14 H3           5.4290     0.9000     0.4170 hc         1 3H2       0.031367
     15 H4           3.6490     0.8820    -1.3640 hc         1 3H2       0.037200
     16 H5           3.6490    -0.8810    -1.3540 hc         1 3H2       0.037200
     17 H6           2.8860    -0.8680     1.0430 hc         1 3H2       0.036700
     18 H7           2.8870     0.8960     1.0330 hc         1 3H2       0.036700
     19 H8           1.1360     0.8860    -0.7720 hc         1 3H2       0.041700
     20 H9           1.1350    -0.8770    -0.7610 hc         1 3H2       0.041700
     21 H10          0.3800    -0.8590     1.6370 hc         1 3H2       0.045700
     22 H11          0.3810     0.8950     1.6270 hc         1 3H2       0.045700
     23 H12         -1.3530    -2.1510     0.3850 ha         1 3H2       0.110000
     24 H13         -3.6680    -2.1520    -0.5240 ha         1 3H2       0.111000
     25 H14         -4.8280     0.0040    -0.9950 ha         1 3H2       0.111000
     26 H15         -3.6650     2.1650    -0.5550 ha         1 3H2       0.111000
     27 H16         -1.3500     2.1730     0.3540 ha         1 3H2       0.110000
@<TRIPOS>BOND
     1     1     2 1   
     2     1    12 1   
     3     1    13 1   
     4     1    14 1   
     5     2     3 1   
     6     2    15 1   
     7     2    16 1   
     8     3     4 1   
     9     3    17 1   
    10     3    18 1   
    11     4     5 1   
    12     4    19 1   
    13     4    20 1   
    14     5     6 1   
    15     5    21 1   
    16     5    22 1   
    17     6     7 ar  
    18     6    11 ar  
    19     7     8 ar  
    20     7    23 1   
    21     8     9 ar  
    22     8    24 1   
    23     9    10 ar  
    24     9    25 1   
    25    10    11 ar  
    26    10    26 1   
    27    11    27 1   
@<TRIPOS>SUBSTRUCTURE
     1 3H2         1 TEMP              0 ****  ****    0 ROOT
