@<TRIPOS>MOLECULE
3H3
   68    69     1     0     0
SMALL
abcg2


@<TRIPOS>ATOM
      1 C7          19.3940   -42.9700    82.8400 c3         1 3H3      -0.053200
      2 C8          20.3480   -43.8860    82.1620 c2         1 3H3      -0.132200
      3 C2          23.5960   -44.8800    83.8990 c2         1 3H3      -0.213200
      4 C3          22.7270   -43.8900    84.1180 ce         1 3H3      -0.179000
      5 C4          21.6900   -43.9160    85.1390 ce         1 3H3      -0.175000
      6 C5          20.5520   -43.2110    85.0950 c2         1 3H3      -0.213200
      7 C6          20.1270   -42.2640    84.0100 c3         1 3H3      -0.040200
      8 C1          24.4830   -44.9810    82.6900 c3         1 3H3      -0.034500
      9 O1          22.4910   -45.4590    81.4220 os         1 3H3      -0.461100
     10 C23         30.2090   -40.9520    83.7390 c          1 3H3       0.578000
     11 N           31.0510   -41.7440    84.4900 ns         1 3H3      -0.483500
     12 C22         31.4470   -43.0380    84.2260 c          1 3H3       0.578000
     13 C21         30.8790   -43.6690    82.9860 c6         1 3H3      -0.166900
     14 C24         29.6500   -41.5790    82.4950 c6         1 3H3      -0.166900
     15 C20         29.5250   -43.0940    82.5890 c6         1 3H3      -0.055700
     16 C19         29.0100   -43.6600    81.2710 c3         1 3H3      -0.108400
     17 C18         28.7790   -45.1700    81.2630 c3         1 3H3       0.187300
     18 O5          27.9140   -45.5860    82.2990 oh         1 3H3      -0.661000
     19 C16         27.8470   -47.0680    79.8660 c          1 3H3       0.590100
     20 O2          28.6620   -47.8920    80.2110 o          1 3H3      -0.516100
     21 C14         26.4790   -47.4560    79.3280 c3         1 3H3      -0.120500
     22 C15         26.3970   -48.9190    78.9160 c3         1 3H3      -0.075100
     23 C13         25.4940   -47.1330    80.4180 c2         1 3H3      -0.207200
     24 C12         24.5790   -46.1620    80.4180 c2         1 3H3      -0.107400
     25 C25         24.3310   -45.2490    79.2480 c3         1 3H3      -0.049900
     26 C11         23.8030   -45.9620    81.6980 c3         1 3H3       0.221500
     27 C           24.8450   -43.6390    82.0660 c3         1 3H3      -0.077100
     28 C10         21.4270   -46.0990    81.9120 c          1 3H3       0.607300
     29 O           21.4130   -47.2840    82.1540 o          1 3H3      -0.482000
     30 C9          20.2910   -45.2170    82.2170 ce         1 3H3      -0.277200
     31 H1          19.0410   -42.2000    82.1500 hc         1 3H3       0.054700
     32 H2          18.5220   -43.5130    83.2110 hc         1 3H3       0.054700
     33 H3          21.2060   -43.4050    81.7050 ha         1 3H3       0.183000
     34 H4          23.5890   -45.7460    84.5580 ha         1 3H3       0.174000
     35 H6          22.7290   -43.0430    83.4410 ha         1 3H3       0.172000
     36 H8          21.8280   -44.6200    85.9550 ha         1 3H3       0.175000
     37 H9          19.8280   -43.3760    85.8870 ha         1 3H3       0.171000
     38 H10         20.9800   -41.7160    83.6010 hc         1 3H3       0.048200
     39 H11         19.4530   -41.5150    84.4270 hc         1 3H3       0.048200
     40 H12         25.4170   -45.4740    82.9740 hc         1 3H3       0.074700
     41 H14         31.6010   -43.5070    82.1770 hc         1 3H3       0.079950
     42 H15         30.8450   -44.7450    83.1580 hc         1 3H3       0.079950
     43 H16         30.3200   -41.3110    81.6680 hc         1 3H3       0.079950
     44 H17         28.6890   -41.1090    82.2820 hc         1 3H3       0.079950
     45 H18         28.7990   -43.3210    83.3780 hc         1 3H3       0.066700
     46 H19         29.7190   -43.4130    80.4740 hc         1 3H3       0.054200
     47 H20         28.0700   -43.1570    81.0220 hc         1 3H3       0.054200
     48 H21         29.7460   -45.6820    81.3470 h1         1 3H3       0.047700
     49 H22         28.4000   -45.6080    83.1280 ho         1 3H3       0.448000
     50 H25         26.2830   -46.8160    78.4610 hc         1 3H3       0.063700
     51 H26         25.4150   -49.1310    78.4940 hc         1 3H3       0.044700
     52 H27         27.1460   -49.1650    78.1630 hc         1 3H3       0.044700
     53 H28         26.5440   -49.5840    79.7670 hc         1 3H3       0.044700
     54 H29         25.5780   -47.7630    81.3010 ha         1 3H3       0.182000
     55 H30         23.3650   -44.7540    79.3160 hc         1 3H3       0.043367
     56 H31         25.0830   -44.4610    79.1670 hc         1 3H3       0.043367
     57 H32         24.3480   -45.8000    78.3080 hc         1 3H3       0.043367
     58 H33         23.7210   -46.9280    82.2000 h1         1 3H3       0.073700
     59 H34         25.2520   -42.9680    82.8230 hc         1 3H3       0.035033
     60 H35         25.6130   -43.7670    81.3050 hc         1 3H3       0.035033
     61 H36         23.9910   -43.1440    81.6030 hc         1 3H3       0.035033
     62 H37         19.4400   -45.7120    82.6710 ha         1 3H3       0.201000
     63 C17         28.1320   -45.5860    79.9510 c3         1 3H3      -0.183400
     64 H13         31.4450   -41.3170    85.3210 hn         1 3H3       0.332500
     65 O3          32.2250   -43.5990    84.9660 o          1 3H3      -0.513500
     66 O4          29.9730   -39.8150    84.0840 o          1 3H3      -0.513500
     67 H23         28.8010   -45.3360    79.1210 hc         1 3H3       0.068700
     68 H24         27.2150   -45.0170    79.7870 hc         1 3H3       0.068700
@<TRIPOS>BOND
     1     1     2 1   
     2     1     7 1   
     3     1    31 1   
     4     1    32 1   
     5     2    30 2   
     6     2    33 1   
     7     3     4 2   
     8     3     8 1   
     9     3    34 1   
    10     4     5 1   
    11     4    35 1   
    12     5     6 2   
    13     5    36 1   
    14     6     7 1   
    15     6    37 1   
    16     7    38 1   
    17     7    39 1   
    18     8    26 1   
    19     8    27 1   
    20     8    40 1   
    21     9    26 1   
    22     9    28 1   
    23    10    11 1   
    24    10    14 1   
    25    10    66 2   
    26    11    12 1   
    27    11    64 1   
    28    12    13 1   
    29    12    65 2   
    30    13    15 1   
    31    13    41 1   
    32    13    42 1   
    33    14    15 1   
    34    14    43 1   
    35    14    44 1   
    36    15    16 1   
    37    15    45 1   
    38    16    17 1   
    39    16    46 1   
    40    16    47 1   
    41    17    18 1   
    42    17    48 1   
    43    17    63 1   
    44    18    49 1   
    45    19    20 2   
    46    19    21 1   
    47    19    63 1   
    48    21    22 1   
    49    21    23 1   
    50    21    50 1   
    51    22    51 1   
    52    22    52 1   
    53    22    53 1   
    54    23    24 2   
    55    23    54 1   
    56    24    25 1   
    57    24    26 1   
    58    25    55 1   
    59    25    56 1   
    60    25    57 1   
    61    26    58 1   
    62    27    59 1   
    63    27    60 1   
    64    27    61 1   
    65    28    29 2   
    66    28    30 1   
    67    30    62 1   
    68    63    67 1   
    69    63    68 1   
@<TRIPOS>SUBSTRUCTURE
     1 3H3         1 TEMP              0 ****  ****    0 ROOT
