@<TRIPOS>MOLECULE
3H3
   68    69     1     0     0
SMALL
No Charge or Current Charge


@<TRIPOS>ATOM
      1 C7          18.4580   -43.5470    82.7340 c3         1 3H3      -0.053200
      2 C8          19.5670   -44.3790    82.1280 c2         1 3H3      -0.132200
      3 C2          22.6810   -45.1480    84.2560 c2         1 3H3      -0.213200
      4 C3          21.6840   -44.2380    84.3360 ce         1 3H3      -0.179000
      5 C4          20.5780   -44.3030    85.2990 ce         1 3H3      -0.175000
      6 C5          19.3890   -43.6680    85.1460 c2         1 3H3      -0.213200
      7 C6          18.9380   -42.7740    83.9920 c3         1 3H3      -0.040200
      8 C1          23.7560   -45.2030    83.1670 c3         1 3H3      -0.034500
      9 O1          21.9690   -45.6920    81.5630 os         1 3H3      -0.461100
     10 C23         32.5010   -41.0750    82.7290 c          1 3H3       0.578000
     11 N           32.3290   -41.5380    84.0000 ns         1 3H3      -0.483500
     12 C22         31.7920   -42.7220    84.4140 c          1 3H3       0.578000
     13 C21         31.2230   -43.6470    83.3300 c6         1 3H3      -0.166900
     14 C24         31.9740   -41.9580    81.5920 c6         1 3H3      -0.166900
     15 C20         30.8290   -42.9150    82.0170 c6         1 3H3      -0.055700
     16 C19         30.4660   -43.8990    80.8590 c3         1 3H3      -0.108400
     17 C18         29.2810   -44.8660    81.1140 c3         1 3H3       0.187300
     18 O5          28.0860   -44.1120    81.3170 oh         1 3H3      -0.661000
     19 C16         27.9670   -46.8560    80.2650 c          1 3H3       0.590100
     20 O2          28.2250   -47.8490    80.9370 o          1 3H3      -0.516100
     21 C14         26.5460   -46.6140    79.6870 c3         1 3H3      -0.120500
     22 C15         26.2270   -47.6500    78.5850 c3         1 3H3      -0.075100
     23 C13         25.4650   -46.6120    80.7680 c2         1 3H3      -0.207200
     24 C12         24.2660   -45.9940    80.7390 c2         1 3H3      -0.107400
     25 C25         23.7490   -45.1660    79.5610 c3         1 3H3      -0.049900
     26 C11         23.3130   -46.0800    81.9420 c3         1 3H3       0.221500
     27 C           24.2420   -43.7840    82.7700 c3         1 3H3      -0.077100
     28 C10         20.9220   -46.5030    81.9270 c          1 3H3       0.607300
     29 O           21.0260   -47.6930    82.1880 o          1 3H3      -0.482000
     30 C9          19.7050   -45.7180    82.2780 ce         1 3H3      -0.277200
     31 H1          18.0890   -42.8270    81.9930 hc         1 3H3       0.054700
     32 H2          17.6040   -44.1800    83.0040 hc         1 3H3       0.054700
     33 H3          20.3440   -43.7880    81.6390 ha         1 3H3       0.183000
     34 H4          22.7230   -45.9780    84.9640 ha         1 3H3       0.174000
     35 H6          21.6330   -43.4360    83.6020 ha         1 3H3       0.172000
     36 H8          20.7340   -44.9430    86.1700 ha         1 3H3       0.175000
     37 H9          18.6210   -43.7970    85.9120 ha         1 3H3       0.171000
     38 H10         19.7420   -42.0840    83.7070 hc         1 3H3       0.048200
     39 H11         18.1130   -42.1360    84.3340 hc         1 3H3       0.048200
     40 H12         24.6310   -45.7050    83.5980 hc         1 3H3       0.074700
     41 H14         32.0370   -44.3440    83.0880 hc         1 3H3       0.079950
     42 H15         30.4140   -44.2510    83.7600 hc         1 3H3       0.079950
     43 H16         32.8280   -42.5800    81.2920 hc         1 3H3       0.079950
     44 H17         31.7210   -41.3340    80.7250 hc         1 3H3       0.079950
     45 H18         29.9400   -42.2990    82.2150 hc         1 3H3       0.066700
     46 H19         31.3490   -44.5030    80.6150 hc         1 3H3       0.054200
     47 H20         30.2440   -43.3210    79.9520 hc         1 3H3       0.054200
     48 H21         29.5050   -45.4680    82.0060 h1         1 3H3       0.047700
     49 H22         28.2260   -43.5560    82.1120 ho         1 3H3       0.448000
     50 H25         26.5680   -45.6330    79.2010 hc         1 3H3       0.063700
     51 H26         25.2530   -47.4440    78.1270 hc         1 3H3       0.044700
     52 H27         26.9870   -47.6210    77.7950 hc         1 3H3       0.044700
     53 H28         26.2010   -48.6650    79.0000 hc         1 3H3       0.044700
     54 H29         25.7400   -47.1830    81.6580 ha         1 3H3       0.182000
     55 H30         22.8490   -45.6160    79.1260 hc         1 3H3       0.043367
     56 H31         23.4960   -44.1460    79.8730 hc         1 3H3       0.043367
     57 H32         24.4750   -45.0760    78.7470 hc         1 3H3       0.043367
     58 H33         23.3330   -47.1250    82.2800 h1         1 3H3       0.073700
     59 H34         24.4920   -43.1990    83.6640 hc         1 3H3       0.035033
     60 H35         25.1420   -43.8370    82.1470 hc         1 3H3       0.035033
     61 H36         23.4720   -43.2420    82.2080 hc         1 3H3       0.035033
     62 H37         18.9370   -46.2960    82.7870 ha         1 3H3       0.201000
     63 C17         29.0570   -45.8300    79.9360 c3         1 3H3      -0.183400
     64 H13         32.6650   -40.9320    84.7340 hn         1 3H3       0.332500
     65 O3          31.7130   -42.9910    85.6000 o          1 3H3      -0.513500
     66 O4          32.9960   -39.9800    82.5230 o          1 3H3      -0.513500
     67 H23         29.9920   -46.3670    79.7410 hc         1 3H3       0.068700
     68 H24         28.7730   -45.2390    79.0580 hc         1 3H3       0.068700
@<TRIPOS>BOND
     1     1     2 1   
     2     1     7 1   
     3     1    31 1   
     4     1    32 1   
     5     2    30 2   
     6     2    33 1   
     7     3     4 2   
     8     3     8 1   
     9     3    34 1   
    10     4     5 1   
    11     4    35 1   
    12     5     6 2   
    13     5    36 1   
    14     6     7 1   
    15     6    37 1   
    16     7    38 1   
    17     7    39 1   
    18     8    26 1   
    19     8    27 1   
    20     8    40 1   
    21     9    26 1   
    22     9    28 1   
    23    10    11 1   
    24    10    14 1   
    25    10    66 2   
    26    11    12 1   
    27    11    64 1   
    28    12    13 1   
    29    12    65 2   
    30    13    15 1   
    31    13    41 1   
    32    13    42 1   
    33    14    15 1   
    34    14    43 1   
    35    14    44 1   
    36    15    16 1   
    37    15    45 1   
    38    16    17 1   
    39    16    46 1   
    40    16    47 1   
    41    17    18 1   
    42    17    48 1   
    43    17    63 1   
    44    18    49 1   
    45    19    20 2   
    46    19    21 1   
    47    19    63 1   
    48    21    22 1   
    49    21    23 1   
    50    21    50 1   
    51    22    51 1   
    52    22    52 1   
    53    22    53 1   
    54    23    24 2   
    55    23    54 1   
    56    24    25 1   
    57    24    26 1   
    58    25    55 1   
    59    25    56 1   
    60    25    57 1   
    61    26    58 1   
    62    27    59 1   
    63    27    60 1   
    64    27    61 1   
    65    28    29 2   
    66    28    30 1   
    67    30    62 1   
    68    63    67 1   
    69    63    68 1   
@<TRIPOS>SUBSTRUCTURE
     1 3H3         1 TEMP              0 ****  ****    0 ROOT
