@<TRIPOS>MOLECULE
3H4
   86    86     1     0     0
SMALL
No Charge or Current Charge


@<TRIPOS>ATOM
      1 CAF          9.3440     0.2480     0.5920 c6         1 3H4      -0.063200
      2 CAA         10.0240     1.1170    -0.4450 c2         1 3H4      -0.304200
      3 CAB          9.2950     1.9390    -1.2430 ce         1 3H4       0.005900
      4 OAG          9.8570     2.7960    -2.1860 os         1 3H4      -0.301100
      5 CAH         11.2820     2.8600    -2.3730 c3         1 3H4       0.138900
      6 CAC          7.7720     2.0040    -1.1420 c          1 3H4       0.674300
      7 OAI          7.0900     2.8360    -1.7280 o          1 3H4      -0.465000
      8 OAD          7.2000     1.0690    -0.3070 os         1 3H4      -0.433100
      9 CAE          7.9200    -0.1120     0.1100 c6         1 3H4       0.192300
     10 CAJ          7.0500    -0.8790     1.1580 c3         1 3H4      -0.017500
     11 CAK          6.7040    -0.0630     2.4290 c3         1 3H4      -0.084100
     12 CAL          5.7730    -1.4250     0.5330 c2         1 3H4      -0.202200
     13 CAM          5.5810    -2.6490    -0.0150 ce         1 3H4      -0.089200
     14 CAO          6.6990    -3.6750    -0.1270 c3         1 3H4      -0.054900
     15 CAN          4.2960    -3.0380    -0.6200 ce         1 3H4      -0.158000
     16 CAP          3.0380    -2.7640    -0.1630 cf         1 3H4      -0.183000
     17 CAQ          2.6880    -2.0870     1.0850 cf         1 3H4      -0.092000
     18 CAR          1.4650    -1.6060     1.4650 ce         1 3H4      -0.298200
     19 CAS          0.1810    -1.6130     0.7030 c          1 3H4       0.610300
     20 OAU          0.0500    -2.0590    -0.4260 o          1 3H4      -0.614100
     21 N           -0.8680    -1.0510     1.3920 ns         1 3H4      -0.497900
     22 CA          -2.2620    -0.9320     0.8930 c3         1 3H4       0.037700
     23 CB          -3.1910    -2.0660     1.4790 c3         1 3H4      -0.049000
     24 CG1         -4.6290    -1.9680     0.8940 c3         1 3H4      -0.088433
     25 CBA         -2.6270    -3.4660     1.1040 c3         1 3H4      -0.088433
     26 CG2         -3.2810    -1.9680     3.0290 c3         1 3H4      -0.088433
     27 C           -2.7730     0.5170     1.1760 c          1 3H4       0.595100
     28 O           -2.3430     1.2140     2.0890 o          1 3H4      -0.588100
     29 NBB         -3.7360     0.9850     0.3010 ns         1 3H4      -0.415100
     30 CBC         -4.3820     2.2330     0.3310 c2         1 3H4      -0.054400
     31 CBE         -5.3990     2.5510    -0.4840 c2         1 3H4      -0.299200
     32 CBF         -6.0120     1.6620    -1.5570 c3         1 3H4      -0.039200
     33 CBG         -7.1970     0.8160    -1.0300 c3         1 3H4       0.192300
     34 OBH         -8.2440     1.7390    -0.6620 os         1 3H4      -0.464100
     35 CBM         -9.0670     1.4240     0.3750 c          1 3H4       0.648100
     36 OBO         -8.9450     0.4900     1.1480 o          1 3H4      -0.546000
     37 NBN        -10.0030     2.3730     0.5110 nt         1 3H4      -0.596000
     38 CBI         -7.7460    -0.1640    -2.1020 c3         1 3H4      -0.063200
     39 CBJ         -8.8290    -1.1070    -1.5950 c2         1 3H4      -0.221200
     40 CBK        -10.1550    -1.0260    -1.8090 c2         1 3H4      -0.207200
     41 CBL        -10.9050     0.0470    -2.5770 c3         1 3H4      -0.059900
     42 H1           9.9250    -0.6680     0.7630 hc         1 3H4       0.064700
     43 H2           9.3090     0.7880     1.5470 hc         1 3H4       0.064700
     44 H3          11.1130     1.0550    -0.4890 ha         1 3H4       0.191000
     45 H4          11.7840     3.1700    -1.4470 h1         1 3H4       0.043033
     46 H5          11.6800     1.8840    -2.6810 h1         1 3H4       0.043033
     47 H6          11.5300     3.5890    -3.1540 h1         1 3H4       0.043033
     48 H7           8.0270    -0.7610    -0.7720 h1         1 3H4       0.055700
     49 H8           7.6470    -1.7280     1.5110 hc         1 3H4       0.055700
     50 H9           6.0850    -0.6620     3.1090 hc         1 3H4       0.041700
     51 H10          7.6080     0.2270     2.9760 hc         1 3H4       0.041700
     52 H11          6.1460     0.8470     2.1760 hc         1 3H4       0.041700
     53 H12          4.9600    -0.6970     0.5180 ha         1 3H4       0.194000
     54 H13          6.9610    -4.0790     0.8580 hc         1 3H4       0.040700
     55 H14          6.4190    -4.5240    -0.7620 hc         1 3H4       0.040700
     56 H15          7.6060    -3.2350    -0.5590 hc         1 3H4       0.040700
     57 H16          4.3700    -3.6240    -1.5390 ha         1 3H4       0.178000
     58 H17          2.2110    -3.1310    -0.7730 ha         1 3H4       0.206000
     59 H18          3.4980    -1.9750     1.8090 ha         1 3H4       0.174000
     60 H19          1.4040    -1.1470     2.4500 ha         1 3H4       0.179000
     61 H20         -0.6580    -0.6710     2.3070 hn         1 3H4       0.329500
     62 H21         -2.2440    -1.0370    -0.2000 h1         1 3H4       0.086700
     63 H22         -5.1490    -1.0690     1.2460 hc         1 3H4       0.040367
     64 H23         -4.6100    -1.9520    -0.2030 hc         1 3H4       0.040367
     65 H24         -5.2370    -2.8270     1.2040 hc         1 3H4       0.040367
     66 H25         -3.2980    -4.2650     1.4440 hc         1 3H4       0.040367
     67 H26         -2.5130    -3.5630     0.0170 hc         1 3H4       0.040367
     68 H27         -1.6500    -3.6450     1.5670 hc         1 3H4       0.040367
     69 H28         -3.7050    -1.0080     3.3450 hc         1 3H4       0.040367
     70 H29         -3.9220    -2.7620     3.4320 hc         1 3H4       0.040367
     71 H30         -2.2940    -2.0730     3.4940 hc         1 3H4       0.040367
     72 H31         -3.9960     2.9230     1.0880 h4         1 3H4       0.214000
     73 H32         -5.8680     3.5340    -0.4020 ha         1 3H4       0.191000
     74 H34         -6.3490     2.2730    -2.4030 hc         1 3H4       0.052200
     75 H35         -5.2530     0.9840    -1.9660 hc         1 3H4       0.052200
     76 H36         -6.8380     0.2440    -0.1630 h1         1 3H4       0.070700
     77 H37        -10.0250     3.1370    -0.1450 hn         1 3H4       0.323500
     78 H38        -10.6750     2.3060     1.2580 hn         1 3H4       0.323500
     79 H39         -8.0960     0.4150    -2.9640 hc         1 3H4       0.054700
     80 H40         -6.9110    -0.7660    -2.4800 hc         1 3H4       0.054700
     81 H41         -8.4370    -1.9370    -1.0030 ha         1 3H4       0.173000
     82 H42        -10.8110    -1.7880    -1.3830 ha         1 3H4       0.167000
     83 H43        -11.3390    -0.3620    -3.4970 hc         1 3H4       0.039033
     84 H44        -11.7280     0.4490    -1.9730 hc         1 3H4       0.039033
     85 H45        -10.2690     0.8950    -2.8560 hc         1 3H4       0.039033
     86 H46         -4.0120     0.3360    -0.4240 hn         1 3H4       0.318500
@<TRIPOS>BOND
     1     1     2 1   
     2     1     9 1   
     3     1    42 1   
     4     1    43 1   
     5     2     3 2   
     6     2    44 1   
     7     3     4 1   
     8     3     6 1   
     9     4     5 1   
    10     5    45 1   
    11     5    46 1   
    12     5    47 1   
    13     6     7 2   
    14     6     8 1   
    15     8     9 1   
    16     9    10 1   
    17     9    48 1   
    18    10    11 1   
    19    10    12 1   
    20    10    49 1   
    21    11    50 1   
    22    11    51 1   
    23    11    52 1   
    24    12    13 2   
    25    12    53 1   
    26    13    14 1   
    27    13    15 1   
    28    14    54 1   
    29    14    55 1   
    30    14    56 1   
    31    15    16 2   
    32    15    57 1   
    33    16    17 1   
    34    16    58 1   
    35    17    18 2   
    36    17    59 1   
    37    18    19 1   
    38    18    60 1   
    39    19    20 2   
    40    19    21 1   
    41    21    22 1   
    42    21    61 1   
    43    22    23 1   
    44    22    27 1   
    45    22    62 1   
    46    23    24 1   
    47    23    25 1   
    48    23    26 1   
    49    24    63 1   
    50    24    64 1   
    51    24    65 1   
    52    25    66 1   
    53    25    67 1   
    54    25    68 1   
    55    26    69 1   
    56    26    70 1   
    57    26    71 1   
    58    27    28 2   
    59    27    29 1   
    60    29    30 1   
    61    29    86 1   
    62    30    31 2   
    63    30    72 1   
    64    31    32 1   
    65    31    73 1   
    66    32    33 1   
    67    32    74 1   
    68    32    75 1   
    69    33    34 1   
    70    33    38 1   
    71    33    76 1   
    72    34    35 1   
    73    35    36 2   
    74    35    37 1   
    75    37    77 1   
    76    37    78 1   
    77    38    39 1   
    78    38    79 1   
    79    38    80 1   
    80    39    40 2   
    81    39    81 1   
    82    40    41 1   
    83    40    82 1   
    84    41    83 1   
    85    41    84 1   
    86    41    85 1   
@<TRIPOS>SUBSTRUCTURE
     1 3H4         1 TEMP              0 ****  ****    0 ROOT
