@<TRIPOS>MOLECULE
3H4
   86    86     1     0     0
SMALL
bcc


@<TRIPOS>ATOM
      1 CAF          8.5080     0.6120     0.0670 c6         1 3H4      -0.063200
      2 CAA          8.8690     1.5450    -1.0430 c2         1 3H4      -0.254200
      3 CAB          7.9090     2.1270    -1.7670 ce         1 3H4       0.005900
      4 OAG          8.0500     2.9720    -2.7990 os         1 3H4      -0.277900
      5 CAH          9.3710     3.2790    -3.1970 c3         1 3H4       0.115700
      6 CAC          6.4800     1.9580    -1.3940 c          1 3H4       0.749800
      7 OAI          5.6070     2.6770    -1.8050 o          1 3H4      -0.540500
      8 OAD          6.1880     0.9990    -0.5250 os         1 3H4      -0.409900
      9 CAE          7.1620    -0.0170    -0.2180 c6         1 3H4       0.169100
     10 CAJ          6.5920    -0.8750     0.9120 c3         1 3H4      -0.017500
     11 CAK          6.3160    -0.0910     2.1960 c3         1 3H4      -0.084100
     12 CAL          5.3400    -1.5700     0.4610 c2         1 3H4      -0.152200
     13 CAM          5.2130    -2.8560     0.1010 ce         1 3H4      -0.089200
     14 CAO          6.3430    -3.8440     0.0270 c3         1 3H4      -0.054900
     15 CAN          3.9120    -3.3910    -0.3090 ce         1 3H4      -0.108000
     16 CAP          2.7130    -3.1700     0.2600 cf         1 3H4      -0.133000
     17 CAQ          2.5130    -2.4480     1.5010 cf         1 3H4      -0.042000
     18 CAR          1.3710    -1.9480     1.9990 ce         1 3H4      -0.248200
     19 CAS          0.0670    -1.9230     1.3070 c          1 3H4       0.677300
     20 OAU         -0.0980    -2.2770     0.1450 o          1 3H4      -0.614100
     21 N           -0.9460    -1.4640     2.0790 ns         1 3H4      -0.564900
     22 CA          -2.2870    -1.2610     1.5960 c3         1 3H4       0.037700
     23 CB          -3.3100    -2.2700     2.1940 c3         1 3H4      -0.049000
     24 CG1         -4.7080    -1.9760     1.6450 c3         1 3H4      -0.088433
     25 CBA         -2.8960    -3.6760     1.7520 c3         1 3H4      -0.088433
     26 CG2         -3.3400    -2.2170     3.7220 c3         1 3H4      -0.088433
     27 C           -2.6750     0.1900     1.8590 c          1 3H4       0.662100
     28 O           -2.4180     0.7570     2.9060 o          1 3H4      -0.588100
     29 NBB         -3.3370     0.7820     0.8370 ns         1 3H4      -0.482100
     30 CBC         -3.8930     2.0560     0.8860 c2         1 3H4      -0.004400
     31 CBE         -4.6030     2.5960    -0.1040 c2         1 3H4      -0.249200
     32 CBF         -4.9150     1.9220    -1.4070 c3         1 3H4      -0.039200
     33 CBG         -6.0920     0.9530    -1.3100 c3         1 3H4       0.169100
     34 OBH         -7.2330     1.7020    -0.8940 os         1 3H4      -0.440900
     35 CBM         -8.0180     1.2160     0.0770 c          1 3H4       0.764100
     36 OBO         -7.7500     0.2530     0.7640 o          1 3H4      -0.595000
     37 NBN         -9.1200     1.9750     0.2140 nt         1 3H4      -0.663000
     38 CBI         -6.4060     0.2900    -2.6490 c3         1 3H4      -0.063200
     39 CBJ         -7.5320    -0.6910    -2.5430 c2         1 3H4      -0.171200
     40 CBK         -8.8050    -0.4780    -2.8730 c2         1 3H4      -0.157200
     41 CBL         -9.4000     0.7740    -3.4280 c3         1 3H4      -0.059900
     42 H1           9.2510    -0.1840     0.1390 hc         1 3H4       0.064700
     43 H2           8.5250     1.1380     1.0270 hc         1 3H4       0.064700
     44 H3           9.9180     1.7390    -1.2280 ha         1 3H4       0.141000
     45 H4           9.9290     3.7750    -2.3980 h1         1 3H4       0.043033
     46 H5           9.9190     2.3830    -3.5010 h1         1 3H4       0.043033
     47 H6           9.2940     3.9520    -4.0460 h1         1 3H4       0.043033
     48 H7           7.2650    -0.6500    -1.1070 h1         1 3H4       0.055700
     49 H8           7.3680    -1.6150     1.1240 hc         1 3H4       0.055700
     50 H9           5.9560    -0.7670     2.9720 hc         1 3H4       0.041700
     51 H10          7.2130     0.3950     2.5800 hc         1 3H4       0.041700
     52 H11          5.5530     0.6730     2.0450 hc         1 3H4       0.041700
     53 H12          4.4550    -0.9420     0.4110 ha         1 3H4       0.144000
     54 H13          6.2300    -4.6180     0.7890 hc         1 3H4       0.040700
     55 H14          6.3390    -4.3530    -0.9390 hc         1 3H4       0.040700
     56 H15          7.3240    -3.3910     0.1530 hc         1 3H4       0.040700
     57 H16          3.9330    -4.0570    -1.1670 ha         1 3H4       0.128000
     58 H17          1.8450    -3.6030    -0.2150 ha         1 3H4       0.156000
     59 H18          3.3960    -2.3340     2.1220 ha         1 3H4       0.124000
     60 H19          1.4060    -1.5030     2.9870 ha         1 3H4       0.129000
     61 H20         -0.7340    -1.1430     3.0100 hn         1 3H4       0.329500
     62 H21         -2.2640    -1.4330     0.5160 h1         1 3H4       0.086700
     63 H22         -5.1040    -1.0130     1.9710 hc         1 3H4       0.040367
     64 H23         -4.7250    -1.9900     0.5520 hc         1 3H4       0.040367
     65 H24         -5.4060    -2.7410     1.9870 hc         1 3H4       0.040367
     66 H25         -3.6150    -4.4080     2.1260 hc         1 3H4       0.040367
     67 H26         -2.8660    -3.7610     0.6640 hc         1 3H4       0.040367
     68 H27         -1.9150    -3.9500     2.1410 hc         1 3H4       0.040367
     69 H28         -3.6600    -1.2460     4.1000 hc         1 3H4       0.040367
     70 H29         -4.0420    -2.9640     4.0970 hc         1 3H4       0.040367
     71 H30         -2.3650    -2.4470     4.1560 hc         1 3H4       0.040367
     72 H31         -3.7160     2.5900     1.8080 h4         1 3H4       0.164000
     73 H32         -4.9950     3.5890     0.0640 ha         1 3H4       0.141000
     74 H34         -5.1300     2.6740    -2.1700 hc         1 3H4       0.052200
     75 H35         -4.0520     1.3630    -1.7820 hc         1 3H4       0.052200
     76 H36         -5.8770     0.1840    -0.5640 h1         1 3H4       0.070700
     77 H37         -9.3650     2.6690    -0.4710 hn         1 3H4       0.323500
     78 H38         -9.8440     1.6690     0.8400 hn         1 3H4       0.323500
     79 H39         -6.6090     1.0640    -3.3930 hc         1 3H4       0.054700
     80 H40         -5.5030    -0.2290    -2.9820 hc         1 3H4       0.054700
     81 H41         -7.2710    -1.6600    -2.1300 ha         1 3H4       0.123000
     82 H42         -9.5040    -1.2950    -2.7220 ha         1 3H4       0.117000
     83 H43         -9.8460     0.5930    -4.4080 hc         1 3H4       0.039033
     84 H44        -10.2070     1.1290    -2.7830 hc         1 3H4       0.039033
     85 H45         -8.6790     1.5830    -3.5270 hc         1 3H4       0.039033
     86 H46         -3.4550     0.2430    -0.0070 hn         1 3H4       0.318500
@<TRIPOS>BOND
     1     1     2 1   
     2     1     9 1   
     3     1    42 1   
     4     1    43 1   
     5     2     3 2   
     6     2    44 1   
     7     3     4 1   
     8     3     6 1   
     9     4     5 1   
    10     5    45 1   
    11     5    46 1   
    12     5    47 1   
    13     6     7 2   
    14     6     8 1   
    15     8     9 1   
    16     9    10 1   
    17     9    48 1   
    18    10    11 1   
    19    10    12 1   
    20    10    49 1   
    21    11    50 1   
    22    11    51 1   
    23    11    52 1   
    24    12    13 2   
    25    12    53 1   
    26    13    14 1   
    27    13    15 1   
    28    14    54 1   
    29    14    55 1   
    30    14    56 1   
    31    15    16 2   
    32    15    57 1   
    33    16    17 1   
    34    16    58 1   
    35    17    18 2   
    36    17    59 1   
    37    18    19 1   
    38    18    60 1   
    39    19    20 2   
    40    19    21 1   
    41    21    22 1   
    42    21    61 1   
    43    22    23 1   
    44    22    27 1   
    45    22    62 1   
    46    23    24 1   
    47    23    25 1   
    48    23    26 1   
    49    24    63 1   
    50    24    64 1   
    51    24    65 1   
    52    25    66 1   
    53    25    67 1   
    54    25    68 1   
    55    26    69 1   
    56    26    70 1   
    57    26    71 1   
    58    27    28 2   
    59    27    29 1   
    60    29    30 1   
    61    29    86 1   
    62    30    31 2   
    63    30    72 1   
    64    31    32 1   
    65    31    73 1   
    66    32    33 1   
    67    32    74 1   
    68    32    75 1   
    69    33    34 1   
    70    33    38 1   
    71    33    76 1   
    72    34    35 1   
    73    35    36 2   
    74    35    37 1   
    75    37    77 1   
    76    37    78 1   
    77    38    39 1   
    78    38    79 1   
    79    38    80 1   
    80    39    40 2   
    81    39    81 1   
    82    40    41 1   
    83    40    82 1   
    84    41    83 1   
    85    41    84 1   
    86    41    85 1   
@<TRIPOS>SUBSTRUCTURE
     1 3H4         1 TEMP              0 ****  ****    0 ROOT
