@<TRIPOS>MOLECULE
3H5
   32    34     1     0     0
SMALL
No Charge or Current Charge


@<TRIPOS>ATOM
      1 C11          1.1310    -0.2810     0.0130 cc         1 3H5       0.472400
      2 C13          3.2010     0.4840     0.0080 ca         1 3H5      -0.056200
      3 C14          4.3760     1.2450    -0.0020 ca         1 3H5      -0.111000
      4 C15          5.6010     0.5450     0.0230 ca         1 3H5      -0.102000
      5 C16          5.6140    -0.8710     0.0570 ca         1 3H5      -0.131000
      6 C02         -3.6840     1.0530    -0.0510 cc         1 3H5       0.326300
      7 N03         -4.8140     0.3750    -0.0430 nd         1 3H5      -0.535800
      8 N04         -4.3880    -0.9430    -0.0080 na         1 3H5       0.162800
      9 C05         -5.3580    -2.0460     0.0110 c3         1 3H5       0.063900
     10 C06         -2.9960    -1.0620     0.0040 cd         1 3H5      -0.114000
     11 C07         -2.5400     0.2310    -0.0240 cc         1 3H5      -0.296600
     12 C08         -1.1290     0.6790    -0.0250 c          1 3H5       0.692700
     13 O09         -0.7780     1.8500    -0.0510 o          1 3H5      -0.593100
     14 N10         -0.2310    -0.3540     0.0060 ns         1 3H5      -0.433400
     15 N12          1.8990     0.8730    -0.0100 na         1 3H5      -0.336600
     16 C17          4.4020    -1.5980     0.0660 ca         1 3H5      -0.061000
     17 C18          3.1970    -0.8810     0.0410 ca         1 3H5       0.081400
     18 N19          1.8960    -1.3830     0.0440 nd         1 3H5      -0.624100
     19 H1           4.3480     2.3320    -0.0280 ha         1 3H5       0.119000
     20 H2           6.5400     1.0960     0.0160 ha         1 3H5       0.111000
     21 H3           6.5630    -1.4030     0.0760 ha         1 3H5       0.111000
     22 H4          -3.1550     2.9590     0.7960 hc         1 3H5       0.059033
     23 H5          -3.1440     2.9170    -0.9810 hc         1 3H5       0.059033
     24 H6          -4.6800     2.9660    -0.1030 hc         1 3H5       0.059033
     25 H7          -5.9850    -1.9970    -0.8870 h1         1 3H5       0.063033
     26 H8          -4.8290    -3.0060     0.0330 h1         1 3H5       0.063033
     27 H9          -5.9900    -1.9610     0.9030 h1         1 3H5       0.063033
     28 H10         -2.4900    -2.0210     0.0300 h4         1 3H5       0.153000
     29 H11         -0.6350    -1.2750     0.0250 hn         1 3H5       0.342500
     30 H12          1.5310     1.8160    -0.0350 hn         1 3H5       0.399000
     31 H13          4.4020    -2.6850     0.0930 ha         1 3H5       0.124000
     32 C01         -3.6630     2.5560    -0.0870 c3         1 3H5      -0.127400
@<TRIPOS>BOND
     1     1    14 1   
     2     1    15 1   
     3     1    18 2   
     4     2     3 ar  
     5     2    15 1   
     6     2    17 ar  
     7     3     4 ar  
     8     3    19 1   
     9     4     5 ar  
    10     4    20 1   
    11     5    16 ar  
    12     5    21 1   
    13     6     7 2   
    14     6    11 1   
    15     6    32 1   
    16     7     8 1   
    17     8     9 1   
    18     8    10 1   
    19     9    25 1   
    20     9    26 1   
    21     9    27 1   
    22    10    11 2   
    23    10    28 1   
    24    11    12 1   
    25    12    13 2   
    26    12    14 1   
    27    14    29 1   
    28    15    30 1   
    29    16    17 ar  
    30    16    31 1   
    31    17    18 1   
    32    22    32 1   
    33    23    32 1   
    34    24    32 1   
@<TRIPOS>SUBSTRUCTURE
     1 3H5         1 TEMP              0 ****  ****    0 ROOT
