@<TRIPOS>MOLECULE
3H5
   32    34     1     0     0
SMALL
abcg2


@<TRIPOS>ATOM
      1 C11          1.1770    -0.4220     0.0960 cc         1 3H5       0.472400
      2 C13          3.1430     0.5110    -0.0060 ca         1 3H5      -0.056200
      3 C14          4.2800     1.2980    -0.0890 ca         1 3H5      -0.111000
      4 C15          5.5030     0.6460    -0.0370 ca         1 3H5      -0.102000
      5 C16          5.5750    -0.7430     0.0890 ca         1 3H5      -0.131000
      6 C02         -3.5600     1.0460    -0.0840 cc         1 3H5       0.326300
      7 N03         -4.7050     0.3860    -0.0560 nd         1 3H5      -0.535800
      8 N04         -4.3840    -0.9090    -0.1030 na         1 3H5       0.162800
      9 C05         -5.4000    -1.9220    -0.0540 c3         1 3H5       0.063900
     10 C06         -3.0800    -1.0860    -0.1580 cd         1 3H5      -0.114000
     11 C07         -2.4770     0.1570    -0.1280 cc         1 3H5      -0.296600
     12 C08         -1.0780     0.5290    -0.1120 c          1 3H5       0.692700
     13 O09         -0.6680     1.6490    -0.3010 o          1 3H5      -0.593100
     14 N10         -0.1960    -0.5160     0.1520 ns         1 3H5      -0.433400
     15 N12          1.7980     0.7920    -0.0370 na         1 3H5      -0.336600
     16 C17          4.4350    -1.5200     0.1650 ca         1 3H5      -0.061000
     17 C18          3.1990    -0.8960     0.1250 ca         1 3H5       0.081400
     18 N19          1.9520    -1.4370     0.1940 nd         1 3H5      -0.624100
     19 H1           4.2440     2.3730    -0.1870 ha         1 3H5       0.119000
     20 H2           6.4110     1.2290    -0.0910 ha         1 3H5       0.111000
     21 H3           6.5480    -1.2120     0.1320 ha         1 3H5       0.111000
     22 H4          -2.8760     2.8620     0.8100 hc         1 3H5       0.059033
     23 H5          -3.0480     2.9590    -0.9020 hc         1 3H5       0.059033
     24 H6          -4.5090     2.9420     0.1110 hc         1 3H5       0.059033
     25 H7          -6.2610    -1.5860    -0.6040 h1         1 3H5       0.063033
     26 H8          -5.0800    -2.8420    -0.5100 h1         1 3H5       0.063033
     27 H9          -5.6990    -2.1410     0.9610 h1         1 3H5       0.063033
     28 H10         -2.7040    -2.0870    -0.1060 h4         1 3H5       0.153000
     29 H11         -0.5070    -1.3970     0.5020 hn         1 3H5       0.342500
     30 H12          1.2110     1.6090    -0.1120 hn         1 3H5       0.399000
     31 H13          4.4770    -2.5920     0.2630 ha         1 3H5       0.124000
     32 C01         -3.5070     2.5320    -0.0130 c3         1 3H5      -0.127400
@<TRIPOS>BOND
     1     1    14 1   
     2     1    15 1   
     3     1    18 2   
     4     2     3 ar  
     5     2    15 1   
     6     2    17 ar  
     7     3     4 ar  
     8     3    19 1   
     9     4     5 ar  
    10     4    20 1   
    11     5    16 ar  
    12     5    21 1   
    13     6     7 2   
    14     6    11 1   
    15     6    32 1   
    16     7     8 1   
    17     8     9 1   
    18     8    10 1   
    19     9    25 1   
    20     9    26 1   
    21     9    27 1   
    22    10    11 2   
    23    10    28 1   
    24    11    12 1   
    25    12    13 2   
    26    12    14 1   
    27    14    29 1   
    28    15    30 1   
    29    16    17 ar  
    30    16    31 1   
    31    17    18 1   
    32    22    32 1   
    33    23    32 1   
    34    24    32 1   
@<TRIPOS>SUBSTRUCTURE
     1 3H5         1 TEMP              0 ****  ****    0 ROOT
