@<TRIPOS>MOLECULE
3H6
   36    39     1     0     0
SMALL
No Charge or Current Charge


@<TRIPOS>ATOM
      1 C11          3.9760     0.8360     0.1590 ca         1 3H6      -0.078200
      2 C13         -1.2110    -1.6470     0.1120 cc         1 3H6      -0.277600
      3 C14         -1.0780    -3.0130     0.0660 cd         1 3H6      -0.128000
      4 C17         -2.6020    -1.3730     0.1950 cc         1 3H6       0.373500
      5 C18         -3.2960    -0.0740     0.0720 ca         1 3H6      -0.144500
      6 C10          4.7690     1.9740     0.3490 ca         1 3H6      -0.107000
      7 N12          2.6290     0.6740     0.2540 na         1 3H6      -0.316600
      8 O01         -0.2000     0.4970     0.4790 o          1 3H6      -0.586100
      9 C02         -0.0860    -0.6840     0.1900 c          1 3H6       0.669700
     10 C04          2.3610    -0.6560    -0.0340 cc         1 3H6       0.487400
     11 N05          3.4840    -1.3390    -0.3050 nd         1 3H6      -0.636100
     12 C06          4.4900    -0.3830    -0.1780 ca         1 3H6       0.089400
     13 C07          5.8720    -0.5510    -0.3540 ca         1 3H6      -0.061000
     14 C08          6.7110     0.5720    -0.1720 ca         1 3H6      -0.129000
     15 C09          6.1620     1.8300     0.1790 ca         1 3H6      -0.103000
     16 N15         -2.3810    -3.5010     0.1550 na         1 3H6       0.016800
     17 N16         -3.3230    -2.4820     0.2330 nd         1 3H6      -0.514800
     18 C19         -2.7880     0.9750    -0.7310 ca         1 3H6      -0.047000
     19 C20         -3.5020     2.1770    -0.8830 ca         1 3H6      -0.158500
     20 C21         -4.7460     2.3360    -0.2600 ca         1 3H6       0.183000
     21 F22         -5.4320     3.4900    -0.4100 f          1 3H6      -0.178000
     22 C23         -5.2930     1.2910     0.4940 ca         1 3H6      -0.158500
     23 C24         -4.5810     0.0870     0.6430 ca         1 3H6      -0.047000
     24 H1          -0.2130    -3.6680     0.0320 h4         1 3H6       0.164000
     25 H2           4.3300     2.9330     0.6180 ha         1 3H6       0.119000
     26 H3           1.9330     1.3700     0.4870 hn         1 3H6       0.388000
     27 H4           1.1150    -2.2330    -0.2880 hn         1 3H6       0.347500
     28 H6           6.2840    -1.5200    -0.6220 ha         1 3H6       0.126000
     29 H7           7.7860     0.4680    -0.3020 ha         1 3H6       0.113000
     30 H8           6.8160     2.6880     0.3160 ha         1 3H6       0.112000
     31 H9          -2.6560    -4.4830     0.1680 hn         1 3H6       0.382000
     32 H10         -1.8600     0.8540    -1.2820 ha         1 3H6       0.123500
     33 H11         -3.0980     2.9780    -1.4970 ha         1 3H6       0.133500
     34 H12         -6.2680     1.4100     0.9570 ha         1 3H6       0.133500
     35 H13         -5.0260    -0.7150     1.2300 ha         1 3H6       0.123500
     36 N03          1.1350    -1.2550    -0.0540 ns         1 3H6      -0.414400
@<TRIPOS>BOND
     1     1     6 ar  
     2     1     7 1   
     3     1    12 ar  
     4     2     3 2   
     5     2     4 1   
     6     2     9 1   
     7     3    16 1   
     8     3    24 1   
     9     4     5 1   
    10     4    17 2   
    11     5    18 ar  
    12     5    23 ar  
    13     6    15 ar  
    14     6    25 1   
    15     7    10 1   
    16     7    26 1   
    17     8     9 2   
    18     9    36 1   
    19    10    11 2   
    20    10    36 1   
    21    11    12 1   
    22    12    13 ar  
    23    13    14 ar  
    24    13    28 1   
    25    14    15 ar  
    26    14    29 1   
    27    15    30 1   
    28    16    17 1   
    29    16    31 1   
    30    18    19 ar  
    31    18    32 1   
    32    19    20 ar  
    33    19    33 1   
    34    20    21 1   
    35    20    22 ar  
    36    22    23 ar  
    37    22    34 1   
    38    23    35 1   
    39    27    36 1   
@<TRIPOS>SUBSTRUCTURE
     1 3H6         1 TEMP              0 ****  ****    0 ROOT
