@<TRIPOS>MOLECULE
3H6
   36    39     1     0     0
SMALL
abcg2


@<TRIPOS>ATOM
      1 C11          3.9080     0.8310     0.2420 ca         1 3H6      -0.078200
      2 C13         -1.1940    -1.6790     0.1500 cc         1 3H6      -0.277600
      3 C14         -1.1510    -3.0580     0.2570 cd         1 3H6      -0.128000
      4 C17         -2.5800    -1.3730     0.0970 cc         1 3H6       0.373500
      5 C18         -3.2580    -0.0780    -0.0380 ca         1 3H6      -0.144500
      6 C10          4.6850     1.9330     0.5670 ca         1 3H6      -0.107000
      7 N12          2.5600     0.5850     0.3440 na         1 3H6      -0.316600
      8 O01         -0.1600     0.3840     0.6460 o          1 3H6      -0.586100
      9 C02         -0.0610    -0.7570     0.2310 c          1 3H6       0.669700
     10 C04          2.3610    -0.6700    -0.1250 cc         1 3H6       0.487400
     11 N05          3.4500    -1.2660    -0.5250 nd         1 3H6      -0.636100
     12 C06          4.4470    -0.3440    -0.3070 ca         1 3H6       0.089400
     13 C07          5.8170    -0.4310    -0.5420 ca         1 3H6      -0.061000
     14 C08          6.6030     0.6630    -0.2190 ca         1 3H6      -0.129000
     15 C09          6.0470     1.8270     0.3270 ca         1 3H6      -0.103000
     16 N15         -2.4160    -3.4700     0.2650 na         1 3H6       0.016800
     17 N16         -3.2950    -2.4800     0.1610 nd         1 3H6      -0.514800
     18 C19         -2.7920     0.8990    -0.9160 ca         1 3H6      -0.047000
     19 C20         -3.4630     2.1020    -1.0660 ca         1 3H6      -0.158500
     20 C21         -4.6100     2.3180    -0.3260 ca         1 3H6       0.183000
     21 F22         -5.2640     3.4810    -0.4660 f          1 3H6      -0.178000
     22 C23         -5.1060     1.3710     0.5490 ca         1 3H6      -0.158500
     23 C24         -4.4230     0.1720     0.6860 ca         1 3H6      -0.047000
     24 H1          -0.3310    -3.7490     0.3640 h4         1 3H6       0.164000
     25 H2           4.2540     2.8320     0.9880 ha         1 3H6       0.119000
     26 H3           1.8390     1.2020     0.6850 hn         1 3H6       0.388000
     27 H4           1.1510    -2.2000    -0.6050 hn         1 3H6       0.347500
     28 H6           6.2520    -1.3290    -0.9630 ha         1 3H6       0.126000
     29 H7           7.6710     0.6210    -0.3910 ha         1 3H6       0.113000
     30 H8           6.6930     2.6610     0.5670 ha         1 3H6       0.112000
     31 H9          -2.7400    -4.4220     0.3360 hn         1 3H6       0.382000
     32 H10         -1.9070     0.7230    -1.5120 ha         1 3H6       0.123500
     33 H11         -3.1000     2.8560    -1.7530 ha         1 3H6       0.133500
     34 H12         -6.0070     1.5630     1.1170 ha         1 3H6       0.133500
     35 H13         -4.8010    -0.5720     1.3730 ha         1 3H6       0.123500
     36 N03          1.1330    -1.2830    -0.1820 ns         1 3H6      -0.414400
@<TRIPOS>BOND
     1     1     6 ar  
     2     1     7 1   
     3     1    12 ar  
     4     2     3 2   
     5     2     4 1   
     6     2     9 1   
     7     3    16 1   
     8     3    24 1   
     9     4     5 1   
    10     4    17 2   
    11     5    18 ar  
    12     5    23 ar  
    13     6    15 ar  
    14     6    25 1   
    15     7    10 1   
    16     7    26 1   
    17     8     9 2   
    18     9    36 1   
    19    10    11 2   
    20    10    36 1   
    21    11    12 1   
    22    12    13 ar  
    23    13    14 ar  
    24    13    28 1   
    25    14    15 ar  
    26    14    29 1   
    27    15    30 1   
    28    16    17 1   
    29    16    31 1   
    30    18    19 ar  
    31    18    32 1   
    32    19    20 ar  
    33    19    33 1   
    34    20    21 1   
    35    20    22 ar  
    36    22    23 ar  
    37    22    34 1   
    38    23    35 1   
    39    27    36 1   
@<TRIPOS>SUBSTRUCTURE
     1 3H6         1 TEMP              0 ****  ****    0 ROOT
