@<TRIPOS>MOLECULE
3H7
   16    17     1     0     0
SMALL
bcc


@<TRIPOS>ATOM
      1 N01          3.6890    -0.3640     0.0480 nv         1 3H7      -0.903800
      2 C02          2.3610    -0.1880    -0.0020 cc         1 3H7       0.639100
      3 N03          1.4880    -1.1420    -0.0080 nd         1 3H7      -0.607100
      4 C04          0.2190    -0.6280    -0.0130 ca         1 3H7       0.082400
      5 C05         -0.9640    -1.3580    -0.0240 ca         1 3H7       0.199900
      6 F06         -0.8950    -2.6920    -0.0240 f          1 3H7      -0.117900
      7 C07         -2.1960    -0.7410    -0.0350 ca         1 3H7      -0.210000
      8 C08         -2.2390     0.6470    -0.0350 ca         1 3H7       0.154900
      9 F09         -3.4420     1.2390    -0.0450 f          1 3H7      -0.136900
     10 C10         -1.1090     1.4370    -0.0250 ca         1 3H7      -0.142000
     11 C11          0.1070     0.7700    -0.0140 ca         1 3H7      -0.024100
     12 S12          1.7040     1.4520    -0.0020 ss         1 3H7      -0.144100
     13 H1           4.0380    -1.2920    -0.1270 hn         1 3H7       0.437300
     14 H2           4.3090     0.3880    -0.2010 hn         1 3H7       0.437300
     15 H3          -3.1070    -1.3260    -0.0440 ha         1 3H7       0.170000
     16 H4          -1.1780     2.5170    -0.0250 ha         1 3H7       0.163000
@<TRIPOS>BOND
     1     1     2 1   
     2     1    13 1   
     3     1    14 1   
     4     2     3 2   
     5     2    12 1   
     6     3     4 1   
     7     4     5 ar  
     8     4    11 ar  
     9     5     6 1   
    10     5     7 ar  
    11     7     8 ar  
    12     7    15 1   
    13     8     9 1   
    14     8    10 ar  
    15    10    11 ar  
    16    10    16 1   
    17    11    12 1   
@<TRIPOS>SUBSTRUCTURE
     1 3H7         1 TEMP              0 ****  ****    0 ROOT
