@<TRIPOS>MOLECULE
3H7
   16    17     1     0     0
SMALL
No Charge or Current Charge


@<TRIPOS>ATOM
      1 N01          3.6810    -0.3760     0.0640 nv         1 3H7      -1.014200
      2 C02          2.3640    -0.1060     0.0450 cc         1 3H7       0.639100
      3 N03          1.5370    -1.1400     0.0280 nd         1 3H7      -0.607100
      4 C04          0.2390    -0.6180     0.0030 ca         1 3H7       0.082400
      5 C05         -0.9460    -1.3910    -0.0190 ca         1 3H7       0.235000
      6 F06         -0.8880    -2.7440    -0.0170 f          1 3H7      -0.153000
      7 C07         -2.2000    -0.7530    -0.0440 ca         1 3H7      -0.192000
      8 C08         -2.2700     0.6520    -0.0470 ca         1 3H7       0.190000
      9 F09         -3.4750     1.2620    -0.0700 f          1 3H7      -0.172000
     10 C10         -1.0960     1.4250    -0.0250 ca         1 3H7      -0.124000
     11 C11          0.1440     0.7660    -0.0000 ca         1 3H7      -0.151000
     12 S12          1.7170     1.5480     0.0290 ss         1 3H7      -0.017200
     13 H1           3.9300    -1.3260    -0.1850 hn         1 3H7       0.492500
     14 H2           4.3120     0.3520    -0.2510 hn         1 3H7       0.492500
     15 H3          -3.1110    -1.3440    -0.0610 ha         1 3H7       0.152000
     16 H4          -1.1530     2.5110    -0.0270 ha         1 3H7       0.145000
@<TRIPOS>BOND
     1     1     2 1   
     2     1    13 1   
     3     1    14 1   
     4     2     3 2   
     5     2    12 1   
     6     3     4 1   
     7     4     5 ar  
     8     4    11 ar  
     9     5     6 1   
    10     5     7 ar  
    11     7     8 ar  
    12     7    15 1   
    13     8     9 1   
    14     8    10 ar  
    15    10    11 ar  
    16    10    16 1   
    17    11    12 1   
@<TRIPOS>SUBSTRUCTURE
     1 3H7         1 TEMP              0 ****  ****    0 ROOT
