@<TRIPOS>MOLECULE
3H8
   51    54     1     0     0
SMALL
abcg2


@<TRIPOS>ATOM
      1 C10         76.9500    76.9200    29.9630 ca         1 3H8      -0.099000
      2 C18         72.7110    81.8800    32.8940 c          1 3H8       0.668100
      3 C11         75.9440    77.6410    30.5950 ca         1 3H8      -0.106000
      4 C12         75.3670    77.1410    31.7610 ca         1 3H8       0.022800
      5 C13         75.7790    75.9140    32.2750 ca         1 3H8      -0.086000
      6 C16         73.0810    79.4860    33.1970 cc         1 3H8      -0.046400
      7 C15         74.1180    79.2200    32.3290 cd         1 3H8      -0.157000
      8 C23         70.9600    82.7220    36.9390 ca         1 3H8      -0.085000
      9 C24         69.7390    83.3880    36.8910 ca         1 3H8      -0.117000
     10 C22         71.7300    82.5920    35.7930 ca         1 3H8      -0.143000
     11 C21         71.2840    83.0940    34.5670 ca         1 3H8      -0.022000
     12 C26         70.0530    83.7610    34.5400 ca         1 3H8       0.084000
     13 C31         77.7280    70.0620    34.3420 ca         1 3H8       0.359900
     14 C30         77.7310    71.2640    33.6540 ca         1 3H8      -0.192000
     15 N32         76.6390    69.4740    34.8470 nb         1 3H8      -0.689000
     16 C28         72.7650    78.2390    33.7870 cc         1 3H8       0.223900
     17 C02         75.4630    70.0970    34.6770 ca         1 3H8       0.376300
     18 C03         75.3630    71.3090    34.0020 ca         1 3H8      -0.226000
     19 C04         76.5060    71.9140    33.4770 ca         1 3H8       0.020000
     20 N05         76.3470    73.1340    32.8200 ns         1 3H8      -0.144000
     21 O07         78.4410    73.5280    31.9880 o          1 3H8      -0.570100
     22 C08         76.7790    75.1910    31.6280 ca         1 3H8      -0.140600
     23 C09         77.3770    75.7040    30.4760 ca         1 3H8      -0.064000
     24 N14         74.3720    77.8790    32.4370 na         1 3H8       0.210000
     25 O19         73.4680    81.9890    31.9320 o          1 3H8      -0.623100
     26 N20         72.0600    82.9830    33.4020 ns         1 3H8      -0.175000
     27 C25         69.2910    83.9190    35.6880 ca         1 3H8      -0.078000
     28 CL          69.4630    84.4210    33.0320 cl         1 3H8      -0.198000
     29 N29         73.5500    77.2780    33.3240 nd         1 3H8      -0.504800
     30 H1          77.3950    77.3120    29.0580 ha         1 3H8       0.128000
     31 H2          75.6110    78.5790    30.1750 ha         1 3H8       0.131000
     32 H3          75.3340    75.5620    33.1930 ha         1 3H8       0.142000
     33 H4          74.6820    79.8700    31.6910 h4         1 3H8       0.187000
     34 H5          71.3260    82.3210    37.8750 ha         1 3H8       0.124000
     35 H6          69.1390    83.5030    37.7830 ha         1 3H8       0.125000
     36 H7          72.6970    82.1090    35.8410 ha         1 3H8       0.131000
     37 H8          78.6670    69.5390    34.4940 h4         1 3H8       0.020100
     38 H9          78.6480    71.6780    33.2730 ha         1 3H8       0.156000
     39 H10         72.0020    78.0250    34.5190 h4         1 3H8       0.042100
     40 H11         74.5040    68.5110    35.7430 hc         1 3H8       0.052033
     41 H12         73.7400    70.0970    35.9600 hc         1 3H8       0.052033
     42 H13         73.5140    69.2180    34.4530 hc         1 3H8       0.052033
     43 H14         74.3960    71.7840    33.8860 ha         1 3H8       0.118000
     44 H15         75.4000    73.4830    32.7980 hn         1 3H8       0.160000
     45 H16         78.1620    75.1430    29.9880 ha         1 3H8       0.141000
     46 H17         71.7270    80.6470    34.2040 hn         1 3H8       0.332500
     47 H18         72.0750    83.7730    32.7750 hn         1 3H8       0.183000
     48 H19         68.3470    84.4440    35.6320 ha         1 3H8       0.134000
     49 C06         77.2810    73.8830    32.1580 c          1 3H8       0.621700
     50 N17         72.4490    80.6880    33.5020 ns         1 3H8      -0.388100
     51 C01         74.2360    69.4400    35.2430 c3         1 3H8      -0.146400
@<TRIPOS>BOND
     1     1     3 ar  
     2     1    23 ar  
     3     1    30 1   
     4     2    25 2   
     5     2    26 1   
     6     2    50 1   
     7     3     4 ar  
     8     3    31 1   
     9     4     5 ar  
    10     4    24 1   
    11     5    22 ar  
    12     5    32 1   
    13     6     7 2   
    14     6    16 1   
    15     6    50 1   
    16     7    24 1   
    17     7    33 1   
    18     8     9 ar  
    19     8    10 ar  
    20     8    34 1   
    21     9    27 ar  
    22     9    35 1   
    23    10    11 ar  
    24    10    36 1   
    25    11    12 ar  
    26    11    26 1   
    27    12    27 ar  
    28    12    28 1   
    29    13    14 ar  
    30    13    15 ar  
    31    13    37 1   
    32    14    19 ar  
    33    14    38 1   
    34    15    17 ar  
    35    16    29 2   
    36    16    39 1   
    37    17    18 ar  
    38    17    51 1   
    39    18    19 ar  
    40    18    43 1   
    41    19    20 1   
    42    20    44 1   
    43    20    49 1   
    44    21    49 2   
    45    22    23 ar  
    46    22    49 1   
    47    23    45 1   
    48    24    29 1   
    49    26    47 1   
    50    27    48 1   
    51    40    51 1   
    52    41    51 1   
    53    42    51 1   
    54    46    50 1   
@<TRIPOS>SUBSTRUCTURE
     1 3H8         1 TEMP              0 ****  ****    0 ROOT
