@<TRIPOS>MOLECULE
3H8
   51    54     1     0     0
SMALL
No Charge or Current Charge


@<TRIPOS>ATOM
      1 C10         76.7840    76.9720    29.5140 ca         1 3H8      -0.099000
      2 C18         73.4560    81.6890    33.6930 c          1 3H8       0.668100
      3 C11         75.7040    77.6450    30.1050 ca         1 3H8      -0.106000
      4 C12         75.0480    77.0850    31.2170 ca         1 3H8       0.022800
      5 C13         75.4780    75.8440    31.7290 ca         1 3H8      -0.086000
      6 C16         73.0080    79.3690    32.8520 cc         1 3H8      -0.046400
      7 C15         74.2090    79.0310    32.3010 cd         1 3H8      -0.157000
      8 C23         69.9250    81.7530    36.5530 ca         1 3H8      -0.085000
      9 C24         69.1460    82.9190    36.4780 ca         1 3H8      -0.117000
     10 C22         71.1460    81.6740    35.8600 ca         1 3H8      -0.143000
     11 C21         71.5920    82.7600    35.0750 ca         1 3H8      -0.022000
     12 C26         70.8150    83.9380    35.0280 ca         1 3H8       0.084000
     13 C31         77.5690    69.9860    34.0810 ca         1 3H8       0.359900
     14 C30         77.5120    71.1270    33.2670 ca         1 3H8      -0.192000
     15 N32         76.7190    69.7690    35.1090 nb         1 3H8      -0.689000
     16 C28         72.1500    78.2590    32.6650 cc         1 3H8       0.223900
     17 C02         75.7760    70.7030    35.3540 ca         1 3H8       0.376300
     18 C03         75.6500    71.8730    34.5850 ca         1 3H8      -0.226000
     19 C04         76.5290    72.1050    33.5150 ca         1 3H8       0.020000
     20 N05         76.3720    73.2990    32.7600 ns         1 3H8      -0.144000
     21 O07         78.0070    73.2360    31.1420 o          1 3H8      -0.570100
     22 C08         76.5690    75.1510    31.1410 ca         1 3H8      -0.140600
     23 C09         77.2140    75.7370    30.0270 ca         1 3H8      -0.064000
     24 N14         73.9710    77.7470    31.8110 na         1 3H8       0.210000
     25 O19         74.6020    81.8020    33.2800 o          1 3H8      -0.623100
     26 N20         72.8290    82.7140    34.3780 ns         1 3H8      -0.175000
     27 C25         69.5940    84.0140    35.7200 ca         1 3H8      -0.078000
     28 Cl          71.3510    85.3310    34.0880 cl         1 3H8      -0.198000
     29 N29         72.7070    77.2380    32.0410 nd         1 3H8      -0.504800
     30 H1          77.2900    77.4070    28.6540 ha         1 3H8       0.128000
     31 H2          75.3750    78.5980    29.6960 ha         1 3H8       0.131000
     32 H3          74.9480    75.4360    32.5860 ha         1 3H8       0.142000
     33 H4          75.1560    79.5500    32.2180 h4         1 3H8       0.187000
     34 H5          69.5860    80.9120    37.1560 ha         1 3H8       0.124000
     35 H6          68.2020    82.9790    37.0160 ha         1 3H8       0.125000
     36 H7          71.7500    80.7750    35.9660 ha         1 3H8       0.131000
     37 H8          78.3210    69.2170    33.9050 h4         1 3H8       0.020100
     38 H9          78.2340    71.2200    32.4640 ha         1 3H8       0.156000
     39 H10         71.1200    78.1720    32.9820 h4         1 3H8       0.042100
     40 H11         75.3510    69.8990    37.3270 hc         1 3H8       0.052033
     41 H12         74.4280    71.3520    36.9240 hc         1 3H8       0.052033
     42 H13         73.9970    69.8000    36.1860 hc         1 3H8       0.052033
     43 H14         74.8690    72.5910    34.8230 ha         1 3H8       0.118000
     44 H15         75.6130    73.8830    33.0830 hn         1 3H8       0.160000
     45 H16         78.0540    75.2350    29.5500 ha         1 3H8       0.141000
     46 H17         71.7350    80.6610    33.8500 hn         1 3H8       0.332500
     47 H18         73.3610    83.5730    34.4120 hn         1 3H8       0.183000
     48 H19         68.9980    84.9210    35.6700 ha         1 3H8       0.134000
     49 C06         77.0600    73.8120    31.6660 c          1 3H8       0.621700
     50 N17         72.6760    80.5650    33.4890 ns         1 3H8      -0.388100
     51 C01         74.8380    70.4230    36.5120 c3         1 3H8      -0.146400
@<TRIPOS>BOND
     1     1     3 ar  
     2     1    23 ar  
     3     1    30 1   
     4     2    25 2   
     5     2    26 1   
     6     2    50 1   
     7     3     4 ar  
     8     3    31 1   
     9     4     5 ar  
    10     4    24 1   
    11     5    22 ar  
    12     5    32 1   
    13     6     7 2   
    14     6    16 1   
    15     6    50 1   
    16     7    24 1   
    17     7    33 1   
    18     8     9 ar  
    19     8    10 ar  
    20     8    34 1   
    21     9    27 ar  
    22     9    35 1   
    23    10    11 ar  
    24    10    36 1   
    25    11    12 ar  
    26    11    26 1   
    27    12    27 ar  
    28    12    28 1   
    29    13    14 ar  
    30    13    15 ar  
    31    13    37 1   
    32    14    19 ar  
    33    14    38 1   
    34    15    17 ar  
    35    16    29 2   
    36    16    39 1   
    37    17    18 ar  
    38    17    51 1   
    39    18    19 ar  
    40    18    43 1   
    41    19    20 1   
    42    20    44 1   
    43    20    49 1   
    44    21    49 2   
    45    22    23 ar  
    46    22    49 1   
    47    23    45 1   
    48    24    29 1   
    49    26    47 1   
    50    27    48 1   
    51    40    51 1   
    52    41    51 1   
    53    42    51 1   
    54    46    50 1   
@<TRIPOS>SUBSTRUCTURE
     1 3H8         1 TEMP              0 ****  ****    0 ROOT
