@<TRIPOS>MOLECULE
3HA
   17    17     1     0     0
SMALL
abcg2


@<TRIPOS>ATOM
      1 O8          16.9150    11.0030     3.1560 o          1 3HA      -0.723500
      2 C7          16.0340    10.0920     3.1260 c          1 3HA       0.711600
      3 O9          16.1810     8.9770     2.5710 o          1 3HA      -0.723500
      4 C2          14.6970    10.3640     3.8100 ca         1 3HA      -0.159600
      5 C1          13.7110     9.3690     3.7730 ca         1 3HA      -0.086000
      6 C6          12.4670     9.5530     4.3520 ca         1 3HA      -0.156000
      7 C5          12.1850    10.7470     5.0150 ca         1 3HA      -0.135000
      8 C4          13.1460    11.7390     5.0730 ca         1 3HA       0.043100
      9 O11         12.8540    12.9030     5.7430 oh         1 3HA      -0.577100
     10 C3          14.4050    11.5810     4.4590 ca         1 3HA       0.220000
     11 N10         15.3270    12.6250     4.5880 nv         1 3HA      -1.094000
     12 H1          13.9500     8.4450     3.2660 ha         1 3HA       0.130000
     13 H6          11.7180     8.7730     4.3060 ha         1 3HA       0.089000
     14 H5          11.2310    10.9120     5.5010 ha         1 3HA       0.097000
     15 H11         13.6840    13.3350     5.9920 ho         1 3HA       0.459000
     16 H101        16.1600    12.4040     4.0400 hn         1 3HA       0.452500
     17 H102        14.9490    13.5370     4.3600 hn         1 3HA       0.452500
@<TRIPOS>BOND
     1     1     2 1   
     2     2     3 1   
     3     2     4 1   
     4     4     5 ar  
     5     4    10 ar  
     6     5     6 ar  
     7     5    12 1   
     8     6     7 ar  
     9     6    13 1   
    10     7     8 ar  
    11     7    14 1   
    12     8     9 1   
    13     8    10 ar  
    14     9    15 1   
    15    10    11 1   
    16    11    16 1   
    17    11    17 1   
@<TRIPOS>SUBSTRUCTURE
     1 3HA         1 TEMP              0 ****  ****    0 ROOT
