@<TRIPOS>MOLECULE
3HA
   17    17     1     0     0
SMALL
No Charge or Current Charge


@<TRIPOS>ATOM
      1 O8          16.6690    11.0340     2.6460 o          1 3HA      -0.723500
      2 C7          16.0440    10.1060     3.1440 c          1 3HA       0.711600
      3 O9          16.4430     8.9500     3.1100 o          1 3HA      -0.723500
      4 C2          14.6990    10.3740     3.7940 ca         1 3HA      -0.159600
      5 C1          13.6960     9.3770     3.7160 ca         1 3HA      -0.086000
      6 C6          12.4370     9.5680     4.3070 ca         1 3HA      -0.156000
      7 C5          12.1610    10.7520     5.0040 ca         1 3HA      -0.135000
      8 C4          13.1410    11.7500     5.1030 ca         1 3HA       0.043100
      9 O11         12.8640    12.8740     5.8370 oh         1 3HA      -0.577100
     10 C3          14.4120    11.5790     4.4870 ca         1 3HA       0.220000
     11 N10         15.3530    12.5870     4.5650 nv         1 3HA      -1.094000
     12 H1          13.8930     8.4470     3.1850 ha         1 3HA       0.130000
     13 H6          11.6790     8.7910     4.2330 ha         1 3HA       0.089000
     14 H5          11.1910    10.8890     5.4760 ha         1 3HA       0.097000
     15 H11         13.7250    13.3120     6.0180 ho         1 3HA       0.459000
     16 H101        16.1770    12.4190     3.9780 hn         1 3HA       0.452500
     17 H102        15.0290    13.5500     4.5300 hn         1 3HA       0.452500
@<TRIPOS>BOND
     1     1     2 1   
     2     2     3 1   
     3     2     4 1   
     4     4     5 ar  
     5     4    10 ar  
     6     5     6 ar  
     7     5    12 1   
     8     6     7 ar  
     9     6    13 1   
    10     7     8 ar  
    11     7    14 1   
    12     8     9 1   
    13     8    10 ar  
    14     9    15 1   
    15    10    11 1   
    16    11    16 1   
    17    11    17 1   
@<TRIPOS>SUBSTRUCTURE
     1 3HA         1 TEMP              0 ****  ****    0 ROOT
