@<TRIPOS>MOLECULE
3HB
   15    15     1     0     0
SMALL
abcg2


@<TRIPOS>ATOM
      1 C1           2.0340    -0.2940    -0.0680 c          1 3HB       0.711600
      2 O1           2.2800    -1.5150    -0.0890 o          1 3HB      -0.719000
      3 O2           2.8660     0.6340    -0.0830 o          1 3HB      -0.719000
      4 C7           0.5630     0.1090    -0.0160 ca         1 3HB      -0.105600
      5 C2          -0.4230    -0.8680     0.0350 ca         1 3HB      -0.115000
      6 C3          -1.7700    -0.5180     0.0850 ca         1 3HB       0.092100
      7 C4          -2.1370     0.8250     0.0800 ca         1 3HB      -0.232000
      8 C5          -1.1500     1.8010     0.0270 ca         1 3HB      -0.113000
      9 C6           0.1910     1.4520    -0.0200 ca         1 3HB      -0.117000
     10 O3          -2.6780    -1.5180     0.1340 oh         1 3HB      -0.551100
     11 H2          -0.1440    -1.9140     0.0360 ha         1 3HB       0.141000
     12 H4          -3.1830     1.1090     0.1180 ha         1 3HB       0.081000
     13 H5          -1.4390     2.8440     0.0240 ha         1 3HB       0.082000
     14 H6           0.9520     2.2200    -0.0590 ha         1 3HB       0.128000
     15 HO3         -3.5700    -1.1560     0.1630 ho         1 3HB       0.438000
@<TRIPOS>BOND
     1     1     2 1   
     2     1     3 1   
     3     1     4 1   
     4     4     5 ar  
     5     4     9 ar  
     6     5     6 ar  
     7     5    11 1   
     8     6     7 ar  
     9     6    10 1   
    10     7     8 ar  
    11     7    12 1   
    12     8     9 ar  
    13     8    13 1   
    14     9    14 1   
    15    10    15 1   
@<TRIPOS>SUBSTRUCTURE
     1 3HB         1 TEMP              0 ****  ****    0 ROOT
