@<TRIPOS>MOLECULE
3HB
   15    15     1     0     0
SMALL
No Charge or Current Charge


@<TRIPOS>ATOM
      1 C1           2.0640    -0.2880    -0.0700 c          1 3HB       0.711600
      2 O1           2.3610    -1.4750    -0.0670 o          1 3HB      -0.719000
      3 O2           2.9020     0.6030    -0.1120 o          1 3HB      -0.719000
      4 C7           0.5910     0.0960    -0.0170 ca         1 3HB      -0.105600
      5 C2          -0.4160    -0.8990     0.0340 ca         1 3HB      -0.115000
      6 C3          -1.7740    -0.5430     0.0820 ca         1 3HB       0.092100
      7 C4          -2.1520     0.8060     0.0810 ca         1 3HB      -0.232000
      8 C5          -1.1690     1.8060     0.0320 ca         1 3HB      -0.113000
      9 C6           0.1920     1.4550    -0.0170 ca         1 3HB      -0.117000
     10 O3          -2.7300    -1.5110     0.1310 oh         1 3HB      -0.551100
     11 H2          -0.1470    -1.9520     0.0360 ha         1 3HB       0.141000
     12 H4          -3.2030     1.0860     0.1190 ha         1 3HB       0.081000
     13 H5          -1.4580     2.8540     0.0310 ha         1 3HB       0.082000
     14 H6           0.9390     2.2450    -0.0550 ha         1 3HB       0.128000
     15 HO3         -3.6070    -1.0710     0.1600 ho         1 3HB       0.438000
@<TRIPOS>BOND
     1     1     2 1   
     2     1     3 1   
     3     1     4 1   
     4     4     5 ar  
     5     4     9 ar  
     6     5     6 ar  
     7     5    11 1   
     8     6     7 ar  
     9     6    10 1   
    10     7     8 ar  
    11     7    12 1   
    12     8     9 ar  
    13     8    13 1   
    14     9    14 1   
    15    10    15 1   
@<TRIPOS>SUBSTRUCTURE
     1 3HB         1 TEMP              0 ****  ****    0 ROOT
