@<TRIPOS>MOLECULE
3HD
   26    26     1     0     0
SMALL
bcc


@<TRIPOS>ATOM
      1 C1          -0.1300     1.7690    -0.8420 c6         1 3HD       0.096400
      2 C2           1.1810     1.2100    -0.3140 c6         1 3HD       0.079100
      3 O2           1.4070     1.5440     1.0350 oh         1 3HD      -0.572800
      4 C3           1.1420    -0.3150    -0.4170 c6         1 3HD       0.159100
      5 O3           2.2510    -0.9370     0.1720 os         1 3HD      -0.380600
      6 CH3          3.4620    -0.7300    -0.5100 c3         1 3HD       0.124700
      7 C4          -0.1140    -0.8750     0.2420 c6         1 3HD       0.123100
      8 O4          -0.1800    -2.2520    -0.0520 oh         1 3HD      -0.587800
      9 C5          -1.3570    -0.1480    -0.2990 c6         1 3HD       0.113100
     10 O5          -1.2350     1.2470    -0.1480 os         1 3HD      -0.375600
     11 C6          -2.6130    -0.5830     0.4250 c3         1 3HD       0.147400
     12 O6          -3.7270     0.0250    -0.1830 oh         1 3HD      -0.583800
     13 H1          -0.1560     2.8550    -0.7220 h1         1 3HD       0.051700
     14 HC1         -0.2020     1.5600    -1.9190 h1         1 3HD       0.051700
     15 H2           1.9830     1.5980    -0.9590 h1         1 3HD       0.035700
     16 HO2          1.4300     2.5030     1.1110 ho         1 3HD       0.402000
     17 H3           1.0980    -0.5590    -1.4930 h1         1 3HD       0.044700
     18 H31          4.2110    -1.3790    -0.0560 h1         1 3HD       0.028700
     19 H32          3.3820    -0.9880    -1.5730 h1         1 3HD       0.028700
     20 H33          3.8230     0.3010    -0.4400 h1         1 3HD       0.028700
     21 H4          -0.0500    -0.7040     1.3250 h1         1 3HD       0.069700
     22 HO4         -0.5930    -2.7090     0.6850 ho         1 3HD       0.407000
     23 H5          -1.4580    -0.4030    -1.3690 h1         1 3HD       0.056700
     24 H61         -2.6820    -1.6760     0.3810 h1         1 3HD       0.025700
     25 H62         -2.5250    -0.3080     1.4860 h1         1 3HD       0.025700
     26 HO6         -4.5170    -0.2770     0.2740 ho         1 3HD       0.404000
@<TRIPOS>BOND
     1     1     2 1   
     2     1    10 1   
     3     1    13 1   
     4     1    14 1   
     5     2     3 1   
     6     2     4 1   
     7     2    15 1   
     8     3    16 1   
     9     4     5 1   
    10     4     7 1   
    11     4    17 1   
    12     5     6 1   
    13     6    18 1   
    14     6    19 1   
    15     6    20 1   
    16     7     8 1   
    17     7     9 1   
    18     7    21 1   
    19     8    22 1   
    20     9    10 1   
    21     9    11 1   
    22     9    23 1   
    23    11    12 1   
    24    11    24 1   
    25    11    25 1   
    26    12    26 1   
@<TRIPOS>SUBSTRUCTURE
     1 3HD         1 TEMP              0 ****  ****    0 ROOT
