@<TRIPOS>MOLECULE
3HD
   26    26     1     0     0
SMALL
No Charge or Current Charge


@<TRIPOS>ATOM
      1 C1          -0.1030     1.8000    -0.8890 c6         1 3HD       0.119600
      2 C2           1.1980     1.1880    -0.2850 c6         1 3HD       0.102300
      3 O2           1.3930     1.6050     1.0870 oh         1 3HD      -0.695000
      4 C3           1.1010    -0.3730    -0.4030 c6         1 3HD       0.182300
      5 O3           2.2420    -1.0730     0.1620 os         1 3HD      -0.427000
      6 CH3          3.5310    -0.8130    -0.4230 c3         1 3HD       0.147900
      7 C4          -0.2120    -0.8870     0.2670 c6         1 3HD       0.146300
      8 O4          -0.3160    -2.3220     0.1360 oh         1 3HD      -0.710000
      9 C5          -1.4460    -0.1490    -0.3420 c6         1 3HD       0.136300
     10 O5          -1.2740     1.2890    -0.2120 os         1 3HD      -0.422000
     11 C6          -2.7870    -0.5530     0.3560 c3         1 3HD       0.170600
     12 O6          -3.9330     0.1570    -0.1550 oh         1 3HD      -0.706000
     13 H1          -0.0860     2.8950    -0.7940 h1         1 3HD       0.051700
     14 HC1         -0.1720     1.5610    -1.9610 h1         1 3HD       0.051700
     15 H2           2.0420     1.5350    -0.8990 h1         1 3HD       0.035700
     16 HO2          1.3810     2.5900     1.1000 ho         1 3HD       0.501000
     17 H3           1.0540    -0.6260    -1.4730 h1         1 3HD       0.044700
     18 H31          4.2920    -1.4550     0.0370 h1         1 3HD       0.028700
     19 H32          3.5170    -1.0170    -1.5010 h1         1 3HD       0.028700
     20 H33          3.8320     0.2310    -0.2680 h1         1 3HD       0.028700
     21 H4          -0.1630    -0.6230     1.3350 h1         1 3HD       0.069700
     22 HO4          0.5880    -2.6700     0.3280 ho         1 3HD       0.506000
     23 H5          -1.5280    -0.4000    -1.4100 h1         1 3HD       0.056700
     24 H61         -2.9330    -1.6330     0.2260 h1         1 3HD       0.025700
     25 H62         -2.6810    -0.3670     1.4340 h1         1 3HD       0.025700
     26 HO6         -4.7070    -0.1220     0.3870 ho         1 3HD       0.503000
@<TRIPOS>BOND
     1     1     2 1   
     2     1    10 1   
     3     1    13 1   
     4     1    14 1   
     5     2     3 1   
     6     2     4 1   
     7     2    15 1   
     8     3    16 1   
     9     4     5 1   
    10     4     7 1   
    11     4    17 1   
    12     5     6 1   
    13     6    18 1   
    14     6    19 1   
    15     6    20 1   
    16     7     8 1   
    17     7     9 1   
    18     7    21 1   
    19     8    22 1   
    20     9    10 1   
    21     9    11 1   
    22     9    23 1   
    23    11    12 1   
    24    11    24 1   
    25    11    25 1   
    26    12    26 1   
@<TRIPOS>SUBSTRUCTURE
     1 3HD         1 TEMP              0 ****  ****    0 ROOT
