@<TRIPOS>MOLECULE
3HE
   43    44     1     0     0
SMALL
bcc


@<TRIPOS>ATOM
      1 C1           3.6710    -1.3830     1.1330 c6         1 3HE      -0.061700
      2 C2           4.6550    -0.3120     0.6660 c6         1 3HE      -0.065400
      3 C3           4.2580     0.3380    -0.6690 c6         1 3HE      -0.162700
      4 C4           2.8460     0.8730    -0.5630 c          1 3HE       0.578100
      5 C5           1.8090    -0.1370    -0.1090 c6         1 3HE      -0.196700
      6 C6           2.2630    -0.7910     1.2080 c6         1 3HE      -0.065400
      7 C12         -4.1630     0.9810     0.5660 c          1 3HE       0.720500
      8 N           -4.8700     0.1000    -0.2230 ns         1 3HE      -0.617500
      9 C11         -4.4130    -1.0740    -0.7820 c          1 3HE       0.720500
     10 O1          -5.1620    -1.7730    -1.4300 o          1 3HE      -0.591500
     11 C10         -2.9760    -1.4150    -0.5190 c6         1 3HE      -0.167400
     12 C13         -2.7220     0.6430     0.8240 c6         1 3HE      -0.167400
     13 C9          -2.0950    -0.1920    -0.2860 c6         1 3HE      -0.048700
     14 C7           0.3950     0.4560    -0.0380 c3         1 3HE       0.159100
     15 O3           0.2710     1.3870     1.0170 oh         1 3HE      -0.575800
     16 O            2.5670     2.0180    -0.8400 o          1 3HE      -0.500100
     17 C14          5.2640     1.3900    -1.1040 c3         1 3HE      -0.078100
     18 C            3.7360    -2.6520     0.2870 c3         1 3HE      -0.088100
     19 H1           3.9550    -1.6630     2.1530 hc         1 3HE       0.052700
     20 H2           4.7260     0.4720     1.4270 hc         1 3HE       0.048700
     21 H3           5.6590    -0.7340     0.5670 hc         1 3HE       0.048700
     22 H4           4.2220    -0.4510    -1.4310 hc         1 3HE       0.062700
     23 H5           1.7990    -0.9140    -0.8850 hc         1 3HE       0.068700
     24 H6           1.5520    -1.5700     1.4960 hc         1 3HE       0.045200
     25 H7           2.2490    -0.0420     2.0050 hc         1 3HE       0.045200
     26 H9          -2.9510    -2.0590     0.3690 hc         1 3HE       0.081700
     27 H10         -2.6150    -2.0160    -1.3540 hc         1 3HE       0.081700
     28 H11         -2.1890     1.5750     0.9940 hc         1 3HE       0.081700
     29 H12         -2.6890     0.0830     1.7670 hc         1 3HE       0.081700
     30 H13         -2.0810     0.4020    -1.2080 hc         1 3HE       0.068700
     31 H16          0.2300     1.0320    -0.9550 h1         1 3HE       0.089700
     32 H17          0.2070     0.9060     1.8480 ho         1 3HE       0.395000
     33 H18          5.3380     2.1980    -0.3760 hc         1 3HE       0.042033
     34 H19          6.2520     0.9390    -1.1990 hc         1 3HE       0.042033
     35 H20          5.0070     1.8290    -2.0680 hc         1 3HE       0.042033
     36 H21          3.4490    -2.4900    -0.7530 hc         1 3HE       0.034367
     37 H22          4.7470    -3.0610     0.2840 hc         1 3HE       0.034367
     38 H23          3.0720    -3.4190     0.6900 hc         1 3HE       0.034367
     39 C8          -0.6650    -0.6430     0.0100 c3         1 3HE      -0.109400
     40 H8          -5.8450     0.3260    -0.3880 hn         1 3HE       0.331500
     41 O2          -4.7120     1.9580     1.0260 o          1 3HE      -0.591500
     42 H14         -0.6430    -1.1650     0.9740 hc         1 3HE       0.047700
     43 H15         -0.3980    -1.3930    -0.7400 hc         1 3HE       0.047700
@<TRIPOS>BOND
     1     1     2 1   
     2     1     6 1   
     3     1    18 1   
     4     1    19 1   
     5     2     3 1   
     6     2    20 1   
     7     2    21 1   
     8     3     4 1   
     9     3    17 1   
    10     3    22 1   
    11     4     5 1   
    12     4    16 2   
    13     5     6 1   
    14     5    14 1   
    15     5    23 1   
    16     6    24 1   
    17     6    25 1   
    18     7     8 1   
    19     7    12 1   
    20     7    41 2   
    21     8     9 1   
    22     8    40 1   
    23     9    10 2   
    24     9    11 1   
    25    11    13 1   
    26    11    26 1   
    27    11    27 1   
    28    12    13 1   
    29    12    28 1   
    30    12    29 1   
    31    13    30 1   
    32    13    39 1   
    33    14    15 1   
    34    14    31 1   
    35    14    39 1   
    36    15    32 1   
    37    17    33 1   
    38    17    34 1   
    39    17    35 1   
    40    18    36 1   
    41    18    37 1   
    42    18    38 1   
    43    39    42 1   
    44    39    43 1   
@<TRIPOS>SUBSTRUCTURE
     1 3HE         1 TEMP              0 ****  ****    0 ROOT
