@<TRIPOS>MOLECULE
3HE
   43    44     1     0     0
SMALL
No Charge or Current Charge


@<TRIPOS>ATOM
      1 C1           3.7500    -1.4670     1.0690 c6         1 3HE      -0.061700
      2 C2           4.7510    -0.3480     0.6740 c6         1 3HE      -0.065400
      3 C3           4.3370     0.4110    -0.6180 c6         1 3HE      -0.162700
      4 C4           2.8720     0.9150    -0.5440 c          1 3HE       0.578100
      5 C5           1.8330    -0.1320    -0.0700 c6         1 3HE      -0.196700
      6 C6           2.3130    -0.8950     1.2060 c6         1 3HE      -0.065400
      7 C12         -4.2890     1.0820     0.3900 c          1 3HE       0.578000
      8 N           -4.9940     0.0990    -0.2390 ns         1 3HE      -0.483500
      9 C11         -4.5730    -1.1390    -0.6250 c          1 3HE       0.578000
     10 O1          -5.3300    -1.9090    -1.1920 o          1 3HE      -0.516000
     11 C10         -3.0980    -1.4760    -0.3830 c6         1 3HE      -0.167400
     12 C13         -2.7960     0.8290     0.6310 c6         1 3HE      -0.167400
     13 C9          -2.1690    -0.2350    -0.3110 c6         1 3HE      -0.048700
     14 C7           0.3810     0.4410     0.0060 c3         1 3HE       0.182300
     15 O3           0.2540     1.3160     1.1310 oh         1 3HE      -0.638000
     16 O            2.5680     2.0680    -0.8300 o          1 3HE      -0.500100
     17 C14          5.3480     1.5300    -1.0090 c3         1 3HE      -0.078100
     18 C            3.8200    -2.7030     0.1240 c3         1 3HE      -0.088100
     19 H1           4.0500    -1.8470     2.0560 hc         1 3HE       0.052700
     20 H2           4.8260     0.3710     1.5030 hc         1 3HE       0.048700
     21 H3           5.7560    -0.7750     0.5540 hc         1 3HE       0.048700
     22 H4           4.3470    -0.3490    -1.4090 hc         1 3HE       0.062700
     23 H5           1.8470    -0.8910    -0.8620 hc         1 3HE       0.068700
     24 H6           1.6170    -1.7100     1.4490 hc         1 3HE       0.045200
     25 H7           2.2940    -0.2140     2.0680 hc         1 3HE       0.045200
     26 H9          -3.0720    -1.9610     0.6020 hc         1 3HE       0.081700
     27 H10         -2.7670    -2.2270    -1.1120 hc         1 3HE       0.081700
     28 H11         -2.2700     1.7920     0.6170 hc         1 3HE       0.081700
     29 H12         -2.7260     0.4490     1.6590 hc         1 3HE       0.081700
     30 H13         -2.1070     0.1970    -1.3220 hc         1 3HE       0.068700
     31 H16          0.2070     1.0010    -0.9260 h1         1 3HE       0.089700
     32 H17          0.3190     0.7570     1.9330 ho         1 3HE       0.434000
     33 H18          5.3720     2.3270    -0.2570 hc         1 3HE       0.042033
     34 H19          6.3640     1.1290    -1.1020 hc         1 3HE       0.042033
     35 H20          5.0860     1.9840    -1.9730 hc         1 3HE       0.042033
     36 H21          3.5400    -2.4630    -0.9070 hc         1 3HE       0.034367
     37 H22          4.8340    -3.1200     0.1000 hc         1 3HE       0.034367
     38 H23          3.1490    -3.4980     0.4690 hc         1 3HE       0.034367
     39 C8          -0.7150    -0.6590     0.0830 c3         1 3HE      -0.109400
     40 H8          -5.9640     0.3060    -0.4210 hn         1 3HE       0.331500
     41 O2          -4.8210     2.1400     0.6820 o          1 3HE      -0.516000
     42 H14         -0.7160    -1.0990     1.0880 hc         1 3HE       0.047700
     43 H15         -0.4130    -1.4710    -0.5900 hc         1 3HE       0.047700
@<TRIPOS>BOND
     1     1     2 1   
     2     1     6 1   
     3     1    18 1   
     4     1    19 1   
     5     2     3 1   
     6     2    20 1   
     7     2    21 1   
     8     3     4 1   
     9     3    17 1   
    10     3    22 1   
    11     4     5 1   
    12     4    16 2   
    13     5     6 1   
    14     5    14 1   
    15     5    23 1   
    16     6    24 1   
    17     6    25 1   
    18     7     8 1   
    19     7    12 1   
    20     7    41 2   
    21     8     9 1   
    22     8    40 1   
    23     9    10 2   
    24     9    11 1   
    25    11    13 1   
    26    11    26 1   
    27    11    27 1   
    28    12    13 1   
    29    12    28 1   
    30    12    29 1   
    31    13    30 1   
    32    13    39 1   
    33    14    15 1   
    34    14    31 1   
    35    14    39 1   
    36    15    32 1   
    37    17    33 1   
    38    17    34 1   
    39    17    35 1   
    40    18    36 1   
    41    18    37 1   
    42    18    38 1   
    43    39    42 1   
    44    39    43 1   
@<TRIPOS>SUBSTRUCTURE
     1 3HE         1 TEMP              0 ****  ****    0 ROOT
