@<TRIPOS>MOLECULE
3HF
   90    93     1     0     0
SMALL
No Charge or Current Charge


@<TRIPOS>ATOM
      1 C1           2.2380     2.4380    -3.7720 ca         1 3HF      -0.106000
      2 C2           3.6720     1.7160     4.9470 ca         1 3HF      -0.139000
      3 C3           1.8370     1.0930    -3.7280 ca         1 3HF      -0.105500
      4 C4           1.4510     3.4240    -3.1520 ca         1 3HF      -0.105500
      5 C5           4.8220     0.9230     4.7230 ca         1 3HF      -0.095000
      6 C6          -9.1270    -0.2250     2.6580 ca         1 3HF      -0.073000
      7 C7           2.6250     1.7440     4.0020 ca         1 3HF      -0.047000
      8 C8           0.6490     0.7330    -3.0670 ca         1 3HF      -0.101500
      9 C9           0.2630     3.0650    -2.4930 ca         1 3HF      -0.101500
     10 C10         -8.1550     0.6320     2.1140 ca         1 3HF      -0.146000
     11 C11          4.9390     0.1440     3.5530 ca         1 3HF      -0.118000
     12 C12         -9.3980    -1.4610     2.0470 ca         1 3HF      -0.195000
     13 C13         -7.7210    -0.9800     0.3490 ca         1 3HF      -0.126000
     14 C14          2.4910    -0.1100     0.8390 cc         1 3HF      -0.083400
     15 C15          2.7590     0.9620     2.8450 ca         1 3HF      -0.059800
     16 C16          1.8700     0.7820     1.6990 cd         1 3HF      -0.198400
     17 C17         -0.1460     1.7180    -2.4470 ca         1 3HF      -0.083300
     18 C18         -7.4470     0.2610     0.9550 ca         1 3HF      -0.058300
     19 C19          3.8810     0.1740     2.6290 ca         1 3HF      -0.088000
     20 C20         -8.6910    -1.8430     0.8850 ca         1 3HF       0.138100
     21 C23          3.1460    -6.2450    -2.3160 c3         1 3HF      -0.089600
     22 C24          6.9420     1.7250    -3.5770 c3         1 3HF      -0.089600
     23 C25         -9.8820    -3.9990     0.7130 c3         1 3HF       0.148900
     24 C26         -1.4320     1.3290    -1.7200 c3         1 3HF      -0.053100
     25 C28          4.3260    -5.2990    -2.0190 c3         1 3HF      -0.073400
     26 C29          5.6040     1.1610    -3.0610 c3         1 3HF      -0.073400
     27 C30          3.8790    -3.9420    -1.4360 c3         1 3HF      -0.101400
     28 C31          5.7810    -0.0360    -2.1030 c3         1 3HF      -0.101400
     29 C32          5.0590    -2.9970    -1.1390 c3         1 3HF       0.103500
     30 C33          4.4370    -0.5820    -1.5710 c3         1 3HF       0.103500
     31 C35         -1.3520     1.5440    -0.1810 c3         1 3HF       0.111700
     32 C36         -2.5680     0.9780     0.6250 c3         1 3HF       0.164300
     33 N37          3.7370    -0.4820     1.3630 n          1 3HF      -0.097600
     34 N38         -0.0760     1.0210     0.3240 ns         1 3HF      -0.490900
     35 N40          4.6020    -1.6940    -0.5940 n          1 3HF      -0.407800
     36 O42          5.3260    -2.1430     1.5360 o          1 3HF      -0.563100
     37 O43         -2.7510    -0.4280     0.4230 oh         1 3HF      -0.673000
     38 O44         -8.9130    -3.0450     0.2430 os         1 3HF      -0.342100
     39 H1           3.1540     2.7180    -4.2860 ha         1 3HF       0.111000
     40 H2           3.5960     2.3130     5.8530 ha         1 3HF       0.112000
     41 H3           2.4420     0.3290    -4.2100 ha         1 3HF       0.111000
     42 H4           1.7610     4.4660    -3.1850 ha         1 3HF       0.111000
     43 H5           5.6250     0.9170     5.4580 ha         1 3HF       0.110000
     44 H6          -9.6700     0.0700     3.5530 ha         1 3HF       0.112000
     45 H7           1.7440     2.3580     4.1730 ha         1 3HF       0.140000
     46 H8           0.3480    -0.3120    -3.0410 ha         1 3HF       0.105500
     47 H9          -0.3400     3.8360    -2.0180 ha         1 3HF       0.105500
     48 H10         -7.9520     1.5870     2.5950 ha         1 3HF       0.113000
     49 H11          5.8300    -0.4540     3.3810 ha         1 3HF       0.125000
     50 H12        -10.1540    -2.1050     2.4870 ha         1 3HF       0.117000
     51 H13         -7.1770    -1.2790    -0.5430 ha         1 3HF       0.137000
     52 H14          2.1700    -0.5690    -0.0900 h4         1 3HF       0.219000
     53 H23          2.4620    -5.7950    -3.0460 hc         1 3HF       0.035200
     54 H23A         3.5110    -7.1930    -2.7270 hc         1 3HF       0.035200
     55 H23B         2.5820    -6.4620    -1.4000 hc         1 3HF       0.035200
     56 H24          7.5010     0.9570    -4.1260 hc         1 3HF       0.035200
     57 H24A         6.7650     2.5700    -4.2530 hc         1 3HF       0.035200
     58 H24B         7.5620     2.0760    -2.7430 hc         1 3HF       0.035200
     59 H25         -9.8970    -4.8800     0.0590 h1         1 3HF       0.040033
     60 H25A        -9.6390    -4.3340     1.7290 h1         1 3HF       0.040033
     61 H25B       -10.8890    -3.5620     0.7160 h1         1 3HF       0.040033
     62 H26         -2.2650     1.9130    -2.1270 hc         1 3HF       0.055200
     63 H26A        -1.6700     0.2790    -1.9260 hc         1 3HF       0.055200
     64 H27         -6.4700     1.1620    -0.7340 h1         1 3HF       0.041200
     65 H27A        -6.6020     2.2200     0.6790 h1         1 3HF       0.041200
     66 H28          5.0080    -5.7910    -1.3140 hc         1 3HF       0.038450
     67 H28A         4.8890    -5.1300    -2.9450 hc         1 3HF       0.038450
     68 H29          5.0550     1.9600    -2.5490 hc         1 3HF       0.038450
     69 H29A         4.9960     0.8510    -3.9200 hc         1 3HF       0.038450
     70 H30          3.1960    -3.4520    -2.1410 hc         1 3HF       0.051700
     71 H30A         3.3170    -4.1120    -0.5090 hc         1 3HF       0.051700
     72 H31          6.3290    -0.8290    -2.6240 hc         1 3HF       0.051700
     73 H31A         6.3990     0.2740    -1.2510 hc         1 3HF       0.051700
     74 H32          5.7490    -3.4860    -0.4390 h1         1 3HF       0.057200
     75 H32A         5.6160    -2.8340    -2.0700 h1         1 3HF       0.057200
     76 H33          3.9060     0.2650    -1.1260 h1         1 3HF       0.057200
     77 H33A         3.8330    -0.9400    -2.4140 h1         1 3HF       0.057200
     78 H34         -3.9760     2.6410     0.7510 h1         1 3HF       0.044700
     79 H34A        -4.0260     1.7650    -0.7880 h1         1 3HF       0.044700
     80 H35         -1.3360     2.6290    -0.0120 h1         1 3HF       0.085700
     81 H36         -2.3790     1.1590     1.6920 h1         1 3HF       0.045700
     82 HN38         0.4170     0.3510    -0.2470 hn         1 3HF       0.311500
     83 HN39        -5.0390     0.7980     1.8240 hn         1 3HF       0.421000
     84 HO43        -3.7420    -0.4880     0.4620 ho         1 3HF       0.471000
     85 C34         -3.9350     1.6400     0.2990 c3         1 3HF       0.118800
     86 C21          0.5380     1.4160     1.4890 c          1 3HF       0.644300
     87 N39         -5.0450     0.7780     0.7940 n7         1 3HF      -0.888400
     88 C22          4.6010    -1.4700     0.8110 c          1 3HF       0.669100
     89 C27         -6.3940     1.1880     0.3620 c3         1 3HF       0.211100
     90 O41          0.0270     2.2200     2.2550 o          1 3HF      -0.603100
@<TRIPOS>BOND
     1     1     3 ar  
     2     1     4 ar  
     3     1    39 1   
     4     2     5 ar  
     5     2     7 ar  
     6     2    40 1   
     7     3     8 ar  
     8     3    41 1   
     9     4     9 ar  
    10     4    42 1   
    11     5    11 ar  
    12     5    43 1   
    13     6    10 ar  
    14     6    12 ar  
    15     6    44 1   
    16     7    15 ar  
    17     7    45 1   
    18     8    17 ar  
    19     8    46 1   
    20     9    17 ar  
    21     9    47 1   
    22    10    18 ar  
    23    10    48 1   
    24    11    19 ar  
    25    11    49 1   
    26    12    20 ar  
    27    12    50 1   
    28    13    18 ar  
    29    13    20 ar  
    30    13    51 1   
    31    14    16 2   
    32    14    33 1   
    33    14    52 1   
    34    15    16 1   
    35    15    19 ar  
    36    16    86 1   
    37    17    24 1   
    38    18    89 1   
    39    19    33 1   
    40    20    38 1   
    41    21    25 1   
    42    21    53 1   
    43    21    54 1   
    44    21    55 1   
    45    22    26 1   
    46    22    56 1   
    47    22    57 1   
    48    22    58 1   
    49    23    38 1   
    50    23    59 1   
    51    23    60 1   
    52    23    61 1   
    53    24    31 1   
    54    24    62 1   
    55    24    63 1   
    56    25    27 1   
    57    25    66 1   
    58    25    67 1   
    59    26    28 1   
    60    26    68 1   
    61    26    69 1   
    62    27    29 1   
    63    27    70 1   
    64    27    71 1   
    65    28    30 1   
    66    28    72 1   
    67    28    73 1   
    68    29    35 1   
    69    29    74 1   
    70    29    75 1   
    71    30    35 1   
    72    30    76 1   
    73    30    77 1   
    74    31    32 1   
    75    31    34 1   
    76    31    80 1   
    77    32    37 1   
    78    32    81 1   
    79    32    85 1   
    80    33    88 1   
    81    34    82 1   
    82    34    86 1   
    83    35    88 1   
    84    36    88 2   
    85    37    84 1   
    86    64    89 1   
    87    65    89 1   
    88    78    85 1   
    89    79    85 1   
    90    83    87 1   
    91    85    87 1   
    92    86    90 2   
    93    87    89 1   
@<TRIPOS>SUBSTRUCTURE
     1 3HF         1 TEMP              0 ****  ****    0 ROOT
