@<TRIPOS>MOLECULE
3HF
   90    93     1     0     0
SMALL
bcc


@<TRIPOS>ATOM
      1 C1           2.4020     4.5420    -1.4870 ca         1 3HF      -0.124000
      2 C2           5.2140     2.9070     2.3740 ca         1 3HF      -0.157000
      3 C3           2.3180     3.2080    -1.8600 ca         1 3HF      -0.123500
      4 C4           1.2700     5.1920    -1.0130 ca         1 3HF      -0.123500
      5 C5           6.1300     1.8560     2.2210 ca         1 3HF      -0.113000
      6 C6          -9.6140    -0.5460     0.7580 ca         1 3HF      -0.091000
      7 C7           3.8680     2.7240     2.1280 ca         1 3HF      -0.065000
      8 C8           1.1120     2.5290    -1.7530 ca         1 3HF      -0.119500
      9 C9           0.0700     4.5050    -0.8960 ca         1 3HF      -0.119500
     10 C10         -8.6360     0.4300     0.6690 ca         1 3HF      -0.164000
     11 C11          5.7210     0.6000     1.8170 ca         1 3HF      -0.136000
     12 C12         -9.3210    -1.8830     0.5140 ca         1 3HF      -0.213000
     13 C13         -7.0310    -1.2540     0.0800 ca         1 3HF      -0.144000
     14 C14          2.3530    -0.3800     0.9980 cc         1 3HF      -0.033400
     15 C15          3.4240     1.4600     1.7280 ca         1 3HF      -0.059800
     16 C16          2.1430     0.9190     1.3620 cd         1 3HF      -0.198400
     17 C17         -0.0250     3.1640    -1.2590 ca         1 3HF      -0.083300
     18 C18         -7.3320     0.0780     0.3220 ca         1 3HF      -0.058300
     19 C19          4.3610     0.4240     1.5750 ca         1 3HF       0.004600
     20 C20         -8.0170    -2.2380     0.1730 ca         1 3HF       0.138100
     21 C23          2.9330    -7.3040    -0.8860 c3         1 3HF      -0.089600
     22 C24          5.3330     1.0320    -3.7120 c3         1 3HF      -0.089600
     23 C25         -8.5790    -4.5350    -0.0220 c3         1 3HF       0.125700
     24 C26         -1.3000     2.4010    -1.0380 c3         1 3HF      -0.053100
     25 C28          4.0290    -6.2480    -0.9200 c3         1 3HF      -0.073400
     26 C29          4.3300    -0.0210    -3.2640 c3         1 3HF      -0.073400
     27 C30          3.5160    -4.8600    -0.5560 c3         1 3HF      -0.101400
     28 C31          4.7360    -0.6910    -1.9570 c3         1 3HF      -0.101400
     29 C32          4.6240    -3.8170    -0.5920 c3         1 3HF       0.103500
     30 C33          3.6930    -1.6960    -1.4870 c3         1 3HF       0.103500
     31 C35         -1.3690     1.8340     0.3940 c3         1 3HF       0.111700
     32 C36         -2.5800     0.9410     0.6460 c3         1 3HF       0.141100
     33 N37          3.6810    -0.6850     1.1090 n          1 3HF      -0.257200
     34 N38         -0.1560     1.1060     0.7040 ns         1 3HF      -0.557900
     35 N40          4.1260    -2.4710    -0.3240 n          1 3HF      -0.474800
     36 O42          4.8620    -2.4970     1.8290 o          1 3HF      -0.563100
     37 O43         -2.5000    -0.1970    -0.1810 oh         1 3HF      -0.610800
     38 O44         -7.6190    -3.5000    -0.0830 os         1 3HF      -0.318900
     39 H1           3.3420     5.0730    -1.5700 ha         1 3HF       0.129000
     40 H2           5.5730     3.8790     2.6870 ha         1 3HF       0.130000
     41 H3           3.1940     2.6940    -2.2350 ha         1 3HF       0.129000
     42 H4           1.3240     6.2350    -0.7280 ha         1 3HF       0.129000
     43 H5           7.1790     2.0310     2.4210 ha         1 3HF       0.128000
     44 H6         -10.6260    -0.2710     1.0280 ha         1 3HF       0.130000
     45 H7           3.1700     3.5410     2.2350 ha         1 3HF       0.158000
     46 H8           1.0560     1.4880    -2.0500 ha         1 3HF       0.123500
     47 H9          -0.8060     5.0150    -0.5120 ha         1 3HF       0.123500
     48 H10         -8.8820     1.4650     0.8710 ha         1 3HF       0.131000
     49 H11          6.4350    -0.2030     1.6980 ha         1 3HF       0.143000
     50 H12        -10.1070    -2.6200     0.5970 ha         1 3HF       0.135000
     51 H13         -6.0200    -1.5420    -0.1830 ha         1 3HF       0.155000
     52 H14          1.6440    -1.1430     0.7140 h4         1 3HF       0.169000
     53 H23          2.1360    -7.0680    -1.5930 hc         1 3HF       0.035200
     54 H23A         3.3220    -8.2900    -1.1430 hc         1 3HF       0.035200
     55 H23B         2.4830    -7.3740     0.1050 hc         1 3HF       0.035200
     56 H24          6.3220     0.5950    -3.8590 hc         1 3HF       0.035200
     57 H24A         5.0320     1.4940    -4.6520 hc         1 3HF       0.035200
     58 H24B         5.4340     1.8260    -2.9700 hc         1 3HF       0.035200
     59 H25         -8.0580    -5.4570    -0.2710 h1         1 3HF       0.040033
     60 H25A        -9.0110    -4.6360     0.9770 h1         1 3HF       0.040033
     61 H25B        -9.3890    -4.3840    -0.7400 h1         1 3HF       0.040033
     62 H26         -2.1550     3.0600    -1.1990 hc         1 3HF       0.055200
     63 H26A        -1.3830     1.5840    -1.7590 hc         1 3HF       0.055200
     64 H27         -6.1880     1.4230    -0.8710 h1         1 3HF       0.041200
     65 H27A        -6.6140     2.0500     0.7070 h1         1 3HF       0.041200
     66 H28          4.8320    -6.5310    -0.2340 hc         1 3HF       0.038450
     67 H28A         4.4780    -6.2180    -1.9180 hc         1 3HF       0.038450
     68 H29          3.3430     0.4380    -3.1480 hc         1 3HF       0.038450
     69 H29A         4.2200    -0.7800    -4.0440 hc         1 3HF       0.038450
     70 H30          2.7180    -4.5730    -1.2470 hc         1 3HF       0.051700
     71 H30A         3.0720    -4.8800     0.4430 hc         1 3HF       0.051700
     72 H31          5.6980    -1.1970    -2.0850 hc         1 3HF       0.051700
     73 H31A         4.8840     0.0750    -1.1910 hc         1 3HF       0.051700
     74 H32          5.4020    -4.0660     0.1270 h1         1 3HF       0.057200
     75 H32A         5.1000    -3.8040    -1.5750 h1         1 3HF       0.057200
     76 H33          2.7420    -1.1980    -1.3050 h1         1 3HF       0.057200
     77 H33A         3.4970    -2.4190    -2.2790 h1         1 3HF       0.057200
     78 H34         -3.9760     2.5300     1.0850 h1         1 3HF       0.044700
     79 H34A        -3.9810     2.0130    -0.6020 h1         1 3HF       0.044700
     80 H35         -1.4250     2.6680     1.0950 h1         1 3HF       0.085700
     81 H36         -2.5300     0.6440     1.7060 h1         1 3HF       0.045700
     82 HN38         0.0400     0.3110     0.1160 hn         1 3HF       0.311500
     83 HN39        -5.0290     0.4450     1.6140 hn         1 3HF       0.365800
     84 HO43        -3.4030    -0.5460    -0.2180 ho         1 3HF       0.432000
     85 C34         -3.9100     1.6520     0.4280 c3         1 3HF       0.118800
     86 C21          0.8710     1.6580     1.3910 c          1 3HF       0.711300
     87 N39         -4.9760     0.6890     0.6310 n7         1 3HF      -0.833200
     88 C22          4.2730    -1.9670     0.9080 c          1 3HF       0.803100
     89 C27         -6.2760     1.1450     0.1840 c3         1 3HF       0.211100
     90 O41          0.7670     2.7030     2.0180 o          1 3HF      -0.603100
@<TRIPOS>BOND
     1     1     3 ar  
     2     1     4 ar  
     3     1    39 1   
     4     2     5 ar  
     5     2     7 ar  
     6     2    40 1   
     7     3     8 ar  
     8     3    41 1   
     9     4     9 ar  
    10     4    42 1   
    11     5    11 ar  
    12     5    43 1   
    13     6    10 ar  
    14     6    12 ar  
    15     6    44 1   
    16     7    15 ar  
    17     7    45 1   
    18     8    17 ar  
    19     8    46 1   
    20     9    17 ar  
    21     9    47 1   
    22    10    18 ar  
    23    10    48 1   
    24    11    19 ar  
    25    11    49 1   
    26    12    20 ar  
    27    12    50 1   
    28    13    18 ar  
    29    13    20 ar  
    30    13    51 1   
    31    14    16 2   
    32    14    33 1   
    33    14    52 1   
    34    15    16 1   
    35    15    19 ar  
    36    16    86 1   
    37    17    24 1   
    38    18    89 1   
    39    19    33 1   
    40    20    38 1   
    41    21    25 1   
    42    21    53 1   
    43    21    54 1   
    44    21    55 1   
    45    22    26 1   
    46    22    56 1   
    47    22    57 1   
    48    22    58 1   
    49    23    38 1   
    50    23    59 1   
    51    23    60 1   
    52    23    61 1   
    53    24    31 1   
    54    24    62 1   
    55    24    63 1   
    56    25    27 1   
    57    25    66 1   
    58    25    67 1   
    59    26    28 1   
    60    26    68 1   
    61    26    69 1   
    62    27    29 1   
    63    27    70 1   
    64    27    71 1   
    65    28    30 1   
    66    28    72 1   
    67    28    73 1   
    68    29    35 1   
    69    29    74 1   
    70    29    75 1   
    71    30    35 1   
    72    30    76 1   
    73    30    77 1   
    74    31    32 1   
    75    31    34 1   
    76    31    80 1   
    77    32    37 1   
    78    32    81 1   
    79    32    85 1   
    80    33    88 1   
    81    34    82 1   
    82    34    86 1   
    83    35    88 1   
    84    36    88 2   
    85    37    84 1   
    86    64    89 1   
    87    65    89 1   
    88    78    85 1   
    89    79    85 1   
    90    83    87 1   
    91    85    87 1   
    92    86    90 2   
    93    87    89 1   
@<TRIPOS>SUBSTRUCTURE
     1 3HF         1 TEMP              0 ****  ****    0 ROOT
