@<TRIPOS>MOLECULE
3HG
   16    15     1     0     0
SMALL
abcg2


@<TRIPOS>ATOM
      1 O2          -0.0100    -0.8900     1.1050 oh         1 3HG      -0.653000
      2 O1          -3.4830     0.3810     0.7360 o          1 3HG      -0.760750
      3 C1          -2.5660     0.0590    -0.0460 c          1 3HG       0.722500
      4 O3          -2.6110    -0.8490    -0.9010 o          1 3HG      -0.760750
      5 C2          -1.2640     0.8760     0.0170 c3         1 3HG      -0.232900
      6 C3          -0.0070     0.0190     0.0130 c3         1 3HG       0.193300
      7 C4           1.2620     0.8600     0.0110 c3         1 3HG      -0.232900
      8 C5           2.5510     0.0230    -0.0580 c          1 3HG       0.722500
      9 O4           2.5850    -0.8760    -0.9240 o          1 3HG      -0.760750
     10 O5           3.4710     0.3200     0.7320 o          1 3HG      -0.760750
     11 HO2         -0.0070    -0.3710     1.9160 ho         1 3HG       0.403000
     12 H21         -1.2620     1.5310     0.8960 hc         1 3HG       0.006200
     13 H22         -1.2340     1.5400    -0.8550 hc         1 3HG       0.006200
     14 H3          -0.0130    -0.6070    -0.8820 h1         1 3HG       0.094700
     15 H41          1.2370     1.5220    -0.8630 hc         1 3HG       0.006200
     16 H42          1.2730     1.5150     0.8890 hc         1 3HG       0.006200
@<TRIPOS>BOND
     1     1     6 1   
     2     1    11 1   
     3     2     3 1   
     4     3     4 1   
     5     3     5 1   
     6     5     6 1   
     7     5    12 1   
     8     5    13 1   
     9     6     7 1   
    10     6    14 1   
    11     7     8 1   
    12     7    15 1   
    13     7    16 1   
    14     8     9 1   
    15     8    10 1   
@<TRIPOS>SUBSTRUCTURE
     1 3HG         1 TEMP              0 ****  ****    0 ROOT
