@<TRIPOS>MOLECULE
3HG
   16    15     1     0     0
SMALL
No Charge or Current Charge


@<TRIPOS>ATOM
      1 O2          -0.0080    -0.5310     1.4580 oh         1 3HG      -0.653000
      2 O1          -3.1740    -0.2130     0.9040 o          1 3HG      -0.760750
      3 C1          -2.5230    -0.0200    -0.1120 c          1 3HG       0.722500
      4 O3          -2.8080    -0.5100    -1.1940 o          1 3HG      -0.760750
      5 C2          -1.2870     0.8890    -0.0350 c3         1 3HG      -0.232900
      6 C3          -0.0070     0.0380     0.1470 c3         1 3HG       0.193300
      7 C4           1.2840     0.8710    -0.0400 c3         1 3HG      -0.232900
      8 C5           2.5080    -0.0550    -0.1220 c          1 3HG       0.722500
      9 O4           2.7810    -0.5490    -1.2060 o          1 3HG      -0.760750
     10 O5           3.1600    -0.2570     0.8910 o          1 3HG      -0.760750
     11 HO2         -0.0020     0.2220     2.0830 ho         1 3HG       0.403000
     12 H21         -1.3470     1.5790     0.8170 hc         1 3HG       0.006200
     13 H22         -1.1570     1.4000    -0.9980 hc         1 3HG       0.006200
     14 H3          -0.0140    -0.7560    -0.6160 h1         1 3HG       0.094700
     15 H41          1.1570     1.3840    -1.0020 hc         1 3HG       0.006200
     16 H42          1.3580     1.5600     0.8120 hc         1 3HG       0.006200
@<TRIPOS>BOND
     1     1     6 1   
     2     1    11 1   
     3     2     3 1   
     4     3     4 1   
     5     3     5 1   
     6     5     6 1   
     7     5    12 1   
     8     5    13 1   
     9     6     7 1   
    10     6    14 1   
    11     7     8 1   
    12     7    15 1   
    13     7    16 1   
    14     8     9 1   
    15     8    10 1   
@<TRIPOS>SUBSTRUCTURE
     1 3HG         1 TEMP              0 ****  ****    0 ROOT
