@<TRIPOS>MOLECULE
3HH
   82    85     1     0     0
SMALL
abcg2


@<TRIPOS>ATOM
      1 C1          -3.7560     2.0640    -1.1140 ca         1 3HH      -0.009000
      2 F1          -0.6310     6.2640    -0.9190 f          1 3HH      -0.170500
      3 N1          -3.5220    -1.3280    -0.0660 n          1 3HH      -0.093600
      4 C2          -2.1780    -1.0430    -0.1440 cc         1 3HH      -0.084400
      5 F2          -3.1470     3.6090     1.9860 f          1 3HH      -0.170500
      6 N2          -6.0030     4.6160    -1.8190 n1         1 3HH      -0.463000
      7 C3          -2.0000     0.2440    -0.5460 cd         1 3HH      -0.195400
      8 C4          -3.3080     0.8050    -0.7320 ca         1 3HH      -0.076800
      9 C5          -5.6140     0.0210    -0.4410 ca         1 3HH      -0.110000
     10 C6          -4.2380    -0.1960    -0.3920 ca         1 3HH      -0.064000
     11 C8          -6.9370    -7.3710     0.0340 c3         1 3HH      -0.089100
     12 C9          -6.0460     1.2710    -0.8230 ca         1 3HH      -0.061000
     13 C10         -5.1250     2.2850    -1.1490 ca         1 3HH      -0.043000
     14 C11         -4.0950    -2.5260     0.4450 c          1 3HH       0.667100
     15 N12         -3.5510    -3.6650     0.0000 n          1 3HH      -0.406800
     16 C13         -2.7460    -3.8060    -1.2020 c3         1 3HH       0.086300
     17 C14         -3.9840    -4.9120     0.6200 c3         1 3HH       0.102000
     18 C15         -5.2570    -5.4770     0.0010 c3         1 3HH      -0.103400
     19 C18         -5.6680    -6.7950     0.6450 c3         1 3HH      -0.072400
     20 O33         -5.0050    -2.4500     1.2460 o          1 3HH      -0.568100
     21 C34         -0.7340     0.9680    -0.7770 c          1 3HH       0.641300
     22 N35          0.2860     0.6230     0.0320 ns         1 3HH      -0.494900
     23 C36          1.5390     1.3440     0.0840 c3         1 3HH       0.081700
     24 C37          2.6800     0.3380     0.2870 c3         1 3HH       0.151300
     25 C38          4.0500     1.0000     0.3000 c3         1 3HH       0.128800
     26 N39          5.1020     0.0060     0.2630 n7         1 3HH      -0.854400
     27 C42          6.4210     0.6000     0.3390 c3         1 3HH       0.203100
     28 C43          7.5110    -0.4390     0.3220 ca         1 3HH      -0.059300
     29 O46         -0.6560     1.8210    -1.6490 o          1 3HH      -0.592100
     30 C48          1.4900     2.4390     1.1690 c3         1 3HH      -0.059100
     31 C50          0.3110     3.3500     0.9870 ca         1 3HH      -0.029300
     32 C53         -0.8950     3.0730     1.6250 ca         1 3HH      -0.163500
     33 C54         -1.9860     3.8820     1.3750 ca         1 3HH       0.206000
     34 C55         -1.9360     4.9650     0.5190 ca         1 3HH      -0.197000
     35 C56         -0.7200     5.2160    -0.0870 ca         1 3HH       0.206000
     36 C57          0.4000     4.4390     0.1250 ca         1 3HH      -0.163500
     37 O63          2.4700    -0.4640     1.4330 oh         1 3HH      -0.660000
     38 C67          7.4230    -1.5370    -0.5220 ca         1 3HH      -0.123000
     39 C68          8.4410    -2.4910    -0.5620 ca         1 3HH       0.136100
     40 C69          9.5600    -2.3450     0.2550 ca         1 3HH      -0.194000
     41 C70          9.6410    -1.2440     1.0990 ca         1 3HH      -0.075000
     42 C71          8.6310    -0.2970     1.1410 ca         1 3HH      -0.146000
     43 O76          8.2560    -3.5170    -1.4180 os         1 3HH      -0.341100
     44 C77          9.2460    -4.5230    -1.4870 c3         1 3HH       0.148900
     45 H1          -3.0580     2.8470    -1.3740 ha         1 3HH       0.148000
     46 H2          -1.4420    -1.7920     0.1010 h4         1 3HH       0.224000
     47 H5          -6.3290    -0.7470    -0.1850 ha         1 3HH       0.139000
     48 H8          -7.2290    -8.3000     0.5250 hc         1 3HH       0.035033
     49 H8A         -7.7710    -6.6720     0.1260 hc         1 3HH       0.035033
     50 H8B         -6.8040    -7.5870    -1.0280 hc         1 3HH       0.035033
     51 H9          -7.1060     1.4800    -0.8680 ha         1 3HH       0.126000
     52 H13         -1.7000    -3.9960    -0.9630 h1         1 3HH       0.050367
     53 H13A        -3.1220    -4.6520    -1.7770 h1         1 3HH       0.050367
     54 H13B        -2.8120    -2.9290    -1.8390 h1         1 3HH       0.050367
     55 H14         -3.1630    -5.6240     0.5100 h1         1 3HH       0.060700
     56 H14A        -4.1190    -4.7510     1.6890 h1         1 3HH       0.060700
     57 H15         -6.0650    -4.7480     0.1070 hc         1 3HH       0.051200
     58 H15A        -5.1080    -5.6270    -1.0730 hc         1 3HH       0.051200
     59 H18         -5.8150    -6.6440     1.7180 hc         1 3HH       0.038700
     60 H18A        -4.8530    -7.5190     0.5490 hc         1 3HH       0.038700
     61 HN35         0.0950     0.0070     0.8070 hn         1 3HH       0.318500
     62 H36          1.6870     1.8190    -0.8880 h1         1 3HH       0.094700
     63 H37          2.6480    -0.3530    -0.5600 h1         1 3HH       0.102700
     64 H38          4.1390     1.6420    -0.5810 h1         1 3HH       0.035700
     65 H38A         4.1380     1.6670     1.1750 h1         1 3HH       0.035700
     66 HN39         4.9870    -0.6260     1.0460 hn         1 3HH       0.422000
     67 H42          6.5440     1.2630    -0.5240 h1         1 3HH       0.037700
     68 H42A         6.5490     1.2400     1.2260 h1         1 3HH       0.037700
     69 H48          1.4420     1.9800     2.1600 hc         1 3HH       0.052200
     70 H48A         2.4110     3.0240     1.1310 hc         1 3HH       0.052200
     71 H53         -0.9830     2.2400     2.3100 ha         1 3HH       0.132500
     72 H55         -2.8010     5.5890     0.3400 ha         1 3HH       0.155000
     73 H57          1.3280     4.6720    -0.3810 ha         1 3HH       0.132500
     74 HO63         2.6340     0.0650     2.2220 ho         1 3HH       0.437000
     75 H67          6.5530    -1.6630    -1.1550 ha         1 3HH       0.142000
     76 H69         10.3640    -3.0670     0.2540 ha         1 3HH       0.117000
     77 H70         10.5080    -1.1350     1.7380 ha         1 3HH       0.111000
     78 H71          8.7070     0.5490     1.8130 ha         1 3HH       0.111000
     79 H77          8.9070    -5.2410    -2.2300 h1         1 3HH       0.040033
     80 H77A        10.2150    -4.1250    -1.7990 h1         1 3HH       0.040033
     81 H77B         9.3700    -5.0410    -0.5320 h1         1 3HH       0.040033
     82 C7          -5.6100     3.5730    -1.5230 cg         1 3HH       0.331000
@<TRIPOS>BOND
     1     1     8 ar  
     2     1    13 ar  
     3     1    45 1   
     4     2    35 1   
     5     3     4 1   
     6     3    10 1   
     7     3    14 1   
     8     4     7 2   
     9     4    46 1   
    10     5    33 1   
    11     6    82 3   
    12     7     8 1   
    13     7    21 1   
    14     8    10 ar  
    15     9    10 ar  
    16     9    12 ar  
    17     9    47 1   
    18    11    19 1   
    19    11    48 1   
    20    11    49 1   
    21    11    50 1   
    22    12    13 ar  
    23    12    51 1   
    24    13    82 1   
    25    14    15 1   
    26    14    20 2   
    27    15    16 1   
    28    15    17 1   
    29    16    52 1   
    30    16    53 1   
    31    16    54 1   
    32    17    18 1   
    33    17    55 1   
    34    17    56 1   
    35    18    19 1   
    36    18    57 1   
    37    18    58 1   
    38    19    59 1   
    39    19    60 1   
    40    21    22 1   
    41    21    29 2   
    42    22    23 1   
    43    22    61 1   
    44    23    24 1   
    45    23    30 1   
    46    23    62 1   
    47    24    25 1   
    48    24    37 1   
    49    24    63 1   
    50    25    26 1   
    51    25    64 1   
    52    25    65 1   
    53    26    27 1   
    54    26    66 1   
    55    27    28 1   
    56    27    67 1   
    57    27    68 1   
    58    28    38 ar  
    59    28    42 ar  
    60    30    31 1   
    61    30    69 1   
    62    30    70 1   
    63    31    32 ar  
    64    31    36 ar  
    65    32    33 ar  
    66    32    71 1   
    67    33    34 ar  
    68    34    35 ar  
    69    34    72 1   
    70    35    36 ar  
    71    36    73 1   
    72    37    74 1   
    73    38    39 ar  
    74    38    75 1   
    75    39    40 ar  
    76    39    43 1   
    77    40    41 ar  
    78    40    76 1   
    79    41    42 ar  
    80    41    77 1   
    81    42    78 1   
    82    43    44 1   
    83    44    79 1   
    84    44    80 1   
    85    44    81 1   
@<TRIPOS>SUBSTRUCTURE
     1 3HH         1 TEMP              0 ****  ****    0 ROOT
