@<TRIPOS>MOLECULE
3HH
   82    85     1     0     0
SMALL
No Charge or Current Charge


@<TRIPOS>ATOM
      1 C1          -3.6240     1.9960    -2.4780 ca         1 3HH      -0.009000
      2 F1          -0.6110     6.5470     0.6650 f          1 3HH      -0.170500
      3 N1          -3.7270    -1.0060    -0.4380 n          1 3HH      -0.093600
      4 C2          -2.4140    -0.5870    -0.1720 cc         1 3HH      -0.084400
      5 F2          -3.2760     3.3260     2.9400 f          1 3HH      -0.170500
      6 N2          -5.4730     4.0430    -4.6690 n1         1 3HH      -0.463000
      7 C3          -2.1380     0.5720    -0.8790 cd         1 3HH      -0.195400
      8 C4          -3.3510     0.9230    -1.6160 ca         1 3HH      -0.076800
      9 C5          -5.5860     0.0140    -1.9050 ca         1 3HH      -0.110000
     10 C6          -4.3070    -0.0380    -1.3250 ca         1 3HH      -0.064000
     11 C8          -6.3400    -7.5810     0.9350 c3         1 3HH      -0.089100
     12 C9          -5.8820     1.0850    -2.7740 ca         1 3HH      -0.061000
     13 C10         -4.9090     2.0750    -3.0590 ca         1 3HH      -0.043000
     14 C11         -4.4090    -2.0980     0.1800 c          1 3HH       0.667100
     15 N12         -3.6850    -3.2300     0.6530 n          1 3HH      -0.406800
     16 C13         -2.3450    -3.6070     0.1370 c3         1 3HH       0.086300
     17 C14         -4.3490    -4.2200     1.5350 c3         1 3HH       0.102000
     18 C15         -4.9910    -5.3970     0.7670 c3         1 3HH      -0.103400
     19 C18         -5.6960    -6.4070     1.6970 c3         1 3HH      -0.072400
     20 O33         -5.6280    -2.0760     0.3050 o          1 3HH      -0.568100
     21 C34         -0.8650     1.3460    -0.8390 c          1 3HH       0.641300
     22 N35          0.0990     0.7840    -0.0300 ns         1 3HH      -0.494900
     23 C36          1.4010     1.3910     0.2870 c3         1 3HH       0.081700
     24 C37          2.5310     0.3210     0.1770 c3         1 3HH       0.151300
     25 C38          3.9630     0.8950     0.3940 c3         1 3HH       0.128800
     26 N39          4.9960    -0.1280     0.1210 n7         1 3HH      -0.854400
     27 C42          6.3780     0.2680     0.4430 c3         1 3HH       0.203100
     28 C43          7.3430    -0.8780     0.1620 ca         1 3HH      -0.059300
     29 O46         -0.6760     2.3850    -1.4550 o          1 3HH      -0.592100
     30 C48          1.3310     2.1280     1.6550 c3         1 3HH      -0.059100
     31 C50          0.1820     3.1270     1.7290 ca         1 3HH      -0.029300
     32 C53         -1.0400     2.7690     2.3330 ca         1 3HH      -0.163500
     33 C54         -2.1060     3.6820     2.3670 ca         1 3HH       0.206000
     34 C55         -1.9660     4.9580     1.8070 ca         1 3HH      -0.197000
     35 C56         -0.7510     5.3180     1.2090 ca         1 3HH       0.206000
     36 C57          0.3200     4.4120     1.1690 ca         1 3HH      -0.163500
     37 O63          2.2840    -0.7760     1.0880 oh         1 3HH      -0.660000
     38 C67          7.8120    -1.1060    -1.1470 ca         1 3HH      -0.123000
     39 C68          8.7040    -2.1570    -1.4170 ca         1 3HH       0.136100
     40 C69          9.1350    -2.9940    -0.3640 ca         1 3HH      -0.194000
     41 C70          8.6690    -2.7720     0.9430 ca         1 3HH      -0.075000
     42 C71          7.7770    -1.7190     1.2050 ca         1 3HH      -0.146000
     43 O76          9.1260    -2.3260    -2.7210 os         1 3HH      -0.341100
     44 C77         10.0380    -3.3720    -3.1020 c3         1 3HH       0.148900
     45 H1          -2.8700     2.7480    -2.6960 ha         1 3HH       0.148000
     46 H2          -1.8360    -1.1350     0.5620 h4         1 3HH       0.224000
     47 H5          -6.3370    -0.7450    -1.7040 ha         1 3HH       0.139000
     48 H8          -6.8280    -8.2700     1.6350 hc         1 3HH       0.035033
     49 H8A         -7.0970    -7.2170     0.2290 hc         1 3HH       0.035033
     50 H8B         -5.5830    -8.1410     0.3730 hc         1 3HH       0.035033
     51 H9          -6.8690     1.1440    -3.2300 ha         1 3HH       0.126000
     52 H13         -1.5670    -3.2860     0.8410 h1         1 3HH       0.050367
     53 H13A        -2.2750    -4.6960     0.0270 h1         1 3HH       0.050367
     54 H13B        -2.1660    -3.1590    -0.8490 h1         1 3HH       0.050367
     55 H14         -3.6040    -4.6180     2.2360 h1         1 3HH       0.060700
     56 H14A        -5.1160    -3.7180     2.1390 h1         1 3HH       0.060700
     57 H15         -5.7190    -4.9990     0.0480 hc         1 3HH       0.051200
     58 H15A        -4.2220    -5.9200     0.1860 hc         1 3HH       0.051200
     59 H18         -6.4710    -5.8890     2.2760 hc         1 3HH       0.038700
     60 H18A        -4.9700    -6.8050     2.4180 hc         1 3HH       0.038700
     61 HN35        -0.1240    -0.0990     0.4060 hn         1 3HH       0.318500
     62 H36          1.6150     2.1510    -0.4770 h1         1 3HH       0.094700
     63 H37          2.5000    -0.0540    -0.8570 h1         1 3HH       0.102700
     64 H38          4.1060     1.7610    -0.2670 h1         1 3HH       0.035700
     65 H38A         4.0520     1.2520     1.4290 h1         1 3HH       0.035700
     66 HN39         4.7670    -0.9610     0.6770 hn         1 3HH       0.422000
     67 H42          6.6750     1.1410    -0.1540 h1         1 3HH       0.037700
     68 H42A         6.4590     0.5540     1.5010 h1         1 3HH       0.037700
     69 H48          1.2320     1.3930     2.4630 hc         1 3HH       0.052200
     70 H48A         2.2760     2.6540     1.8370 hc         1 3HH       0.052200
     71 H53         -1.1700     1.7810     2.7660 ha         1 3HH       0.132500
     72 H55         -2.7930     5.6620     1.8340 ha         1 3HH       0.155000
     73 H57          1.2510     4.7060     0.6930 ha         1 3HH       0.132500
     74 HO63         2.4470    -0.4420     1.9960 ho         1 3HH       0.437000
     75 H67          7.4800    -0.4660    -1.9600 ha         1 3HH       0.142000
     76 H69          9.8240    -3.8150    -0.5390 ha         1 3HH       0.117000
     77 H70          8.9990    -3.4170     1.7550 ha         1 3HH       0.111000
     78 H71          7.4220    -1.5560     2.2200 ha         1 3HH       0.111000
     79 H77         10.2400    -3.3260    -4.1800 h1         1 3HH       0.040033
     80 H77A        10.9940    -3.2680    -2.5730 h1         1 3HH       0.040033
     81 H77B         9.6160    -4.3600    -2.8770 h1         1 3HH       0.040033
     82 C7          -5.2250     3.1590    -3.9470 cg         1 3HH       0.331000
@<TRIPOS>BOND
     1     1     8 ar  
     2     1    13 ar  
     3     1    45 1   
     4     2    35 1   
     5     3     4 1   
     6     3    10 1   
     7     3    14 1   
     8     4     7 2   
     9     4    46 1   
    10     5    33 1   
    11     6    82 3   
    12     7     8 1   
    13     7    21 1   
    14     8    10 ar  
    15     9    10 ar  
    16     9    12 ar  
    17     9    47 1   
    18    11    19 1   
    19    11    48 1   
    20    11    49 1   
    21    11    50 1   
    22    12    13 ar  
    23    12    51 1   
    24    13    82 1   
    25    14    15 1   
    26    14    20 2   
    27    15    16 1   
    28    15    17 1   
    29    16    52 1   
    30    16    53 1   
    31    16    54 1   
    32    17    18 1   
    33    17    55 1   
    34    17    56 1   
    35    18    19 1   
    36    18    57 1   
    37    18    58 1   
    38    19    59 1   
    39    19    60 1   
    40    21    22 1   
    41    21    29 2   
    42    22    23 1   
    43    22    61 1   
    44    23    24 1   
    45    23    30 1   
    46    23    62 1   
    47    24    25 1   
    48    24    37 1   
    49    24    63 1   
    50    25    26 1   
    51    25    64 1   
    52    25    65 1   
    53    26    27 1   
    54    26    66 1   
    55    27    28 1   
    56    27    67 1   
    57    27    68 1   
    58    28    38 ar  
    59    28    42 ar  
    60    30    31 1   
    61    30    69 1   
    62    30    70 1   
    63    31    32 ar  
    64    31    36 ar  
    65    32    33 ar  
    66    32    71 1   
    67    33    34 ar  
    68    34    35 ar  
    69    34    72 1   
    70    35    36 ar  
    71    36    73 1   
    72    37    74 1   
    73    38    39 ar  
    74    38    75 1   
    75    39    40 ar  
    76    39    43 1   
    77    40    41 ar  
    78    40    76 1   
    79    41    42 ar  
    80    41    77 1   
    81    42    78 1   
    82    43    44 1   
    83    44    79 1   
    84    44    80 1   
    85    44    81 1   
@<TRIPOS>SUBSTRUCTURE
     1 3HH         1 TEMP              0 ****  ****    0 ROOT
