@<TRIPOS>MOLECULE
3HI
   76    79     1     0     0
SMALL
No Charge or Current Charge


@<TRIPOS>ATOM
      1 N1          -0.3480    -0.4350     0.7940 na         1 3HI       0.046000
      2 C5           0.3320     0.7480     0.5460 cc         1 3HI      -0.115000
      3 C6           0.0470    -2.9810     0.7510 c3         1 3HI       0.002600
      4 C7          -1.7650    -0.4900     1.2180 c3         1 3HI       0.059600
      5 C8          -2.7360    -0.7330     0.0380 c3         1 3HI      -0.137400
      6 C10         -5.1520    -1.1580    -0.7250 c3         1 3HI      -0.147400
      7 C13          0.7940    -3.6960     1.9020 c3         1 3HI      -0.088100
      8 C15         -0.8650     4.1540    -0.5770 ca         1 3HI      -0.155500
      9 C17          5.9340    -2.4970    -0.9050 ca         1 3HI      -0.108000
     10 C20          7.3060    -2.7510    -1.0830 ca         1 3HI      -0.121000
     11 C21         -0.6310     2.6730     1.8020 ca         1 3HI      -0.065000
     12 C22          3.7160     3.5930    -0.0660 ca         1 3HI      -0.114000
     13 C24         -1.1580     3.9770     1.8330 ca         1 3HI      -0.155500
     14 C26          6.4770    -0.4390     0.2790 ca         1 3HI       0.083100
     15 C28          4.4500     3.3840    -1.2450 ca         1 3HI      -0.117000
     16 O7          -8.8450    -3.6430    -0.7890 o          1 3HI      -0.735500
     17 O6          -9.8020    -1.7250    -0.9800 o          1 3HI      -0.735500
     18 C35         -7.4940    -1.8510    -1.5380 c3         1 3HI      -0.233400
     19 C11         -6.6170    -1.4730    -0.3240 c3         1 3HI       0.187300
     20 O3          -7.1570    -0.3250     0.3250 oh         1 3HI      -0.640000
     21 C9          -4.2180    -0.8160     0.4630 c3         1 3HI       0.170300
     22 O4          -4.6110     0.4430     1.0200 oh         1 3HI      -0.655000
     23 C27         -0.2180     2.1040     0.5810 ca         1 3HI      -0.036000
     24 C30         -1.2730     4.7120     0.6440 ca         1 3HI       0.176000
     25 F1          -1.7780     5.9640     0.6740 f          1 3HI      -0.180000
     26 C18         -0.3380     2.8500    -0.6080 ca         1 3HI      -0.065000
     27 C12          0.4950    -1.5320     0.5250 cc         1 3HI      -0.072300
     28 C14         -0.0570    -3.8150    -0.5480 c3         1 3HI      -0.088100
     29 C2           1.7190    -0.9840     0.1300 cd         1 3HI      -0.230600
     30 C1           1.5690     0.4440     0.0430 cd         1 3HI      -0.078000
     31 C31          2.5750     1.4490    -0.3770 ca         1 3HI      -0.008000
     32 C25          2.7820     2.6340     0.3620 ca         1 3HI      -0.095500
     33 C19          4.2430     2.2180    -1.9970 ca         1 3HI      -0.114000
     34 C16          3.3080     1.2600    -1.5690 ca         1 3HI      -0.095500
     35 C3           2.9780    -1.7820    -0.1100 c          1 3HI       0.653700
     36 O1           3.0080    -2.9890    -0.3050 o          1 3HI      -0.599100
     37 N2           4.1330    -1.0240    -0.0200 ns         1 3HI      -0.134000
     38 C32          5.5060    -1.3410    -0.2140 ca         1 3HI      -0.035000
     39 C23          7.8460    -0.6970     0.0980 ca         1 3HI      -0.182000
     40 C29          8.2610    -1.8540    -0.5810 ca         1 3HI      -0.107000
     41 H6          -0.9870    -2.9650     1.1050 hc         1 3HI       0.047700
     42 H7          -1.8890    -1.2680     1.9800 h1         1 3HI       0.071200
     43 H7A         -2.0250     0.4560     1.7050 h1         1 3HI       0.071200
     44 H8          -2.6070     0.0630    -0.7060 hc         1 3HI       0.055200
     45 H8A         -2.4590    -1.6700    -0.4580 hc         1 3HI       0.055200
     46 H10         -4.7450    -2.0370    -1.2390 hc         1 3HI       0.038700
     47 H10A        -5.1360    -0.3390    -1.4550 hc         1 3HI       0.038700
     48 H13          1.8400    -3.9050     1.6620 hc         1 3HI       0.042700
     49 H13A         0.7710    -3.0800     2.8090 hc         1 3HI       0.042700
     50 H13B         0.3110    -4.6530     2.1340 hc         1 3HI       0.042700
     51 H15         -0.9560     4.7290    -1.4940 ha         1 3HI       0.133000
     52 H17          5.2190    -3.2010    -1.3220 ha         1 3HI       0.149000
     53 H20          7.6270    -3.6430    -1.6160 ha         1 3HI       0.113000
     54 H21         -0.5340     2.1070     2.7260 ha         1 3HI       0.125000
     55 H22          3.8730     4.4960     0.5190 ha         1 3HI       0.108000
     56 H24         -1.4740     4.4170     2.7750 ha         1 3HI       0.133000
     57 H28          5.1730     4.1260    -1.5760 ha         1 3HI       0.105000
     58 H35         -6.9220    -2.6200    -2.0730 hc         1 3HI       0.018200
     59 H35A        -7.6540    -0.9390    -2.1260 hc         1 3HI       0.018200
     60 H11         -6.5970    -2.3270     0.3710 h1         1 3HI       0.082700
     61 HO3         -6.3700     0.1190     0.7270 ho         1 3HI       0.419000
     62 H9          -4.3150    -1.6130     1.2160 h1         1 3HI       0.083700
     63 HO4         -4.1700     1.1410     0.4880 ho         1 3HI       0.430000
     64 H18         -0.0220     2.4170    -1.5550 ha         1 3HI       0.125000
     65 H14         -0.5730    -4.7630    -0.3510 hc         1 3HI       0.042700
     66 H14A        -0.6350    -3.2710    -1.3040 hc         1 3HI       0.042700
     67 H14B         0.9180    -4.0560    -0.9770 hc         1 3HI       0.042700
     68 H25          2.2370     2.8040     1.2860 ha         1 3HI       0.119000
     69 H19          4.8020     2.0570    -2.9170 ha         1 3HI       0.108000
     70 H16          3.1370     0.3750    -2.1780 ha         1 3HI       0.119000
     71 HN2          3.9720    -0.0550     0.2220 hn         1 3HI       0.175000
     72 HO2          6.8990     1.1930     1.1950 ho         1 3HI       0.467000
     73 H23          8.5930    -0.0060     0.4820 ha         1 3HI       0.107000
     74 H29          9.3220    -2.0530    -0.7210 ha         1 3HI       0.108000
     75 C36         -8.8240    -2.4520    -1.0620 c          1 3HI       0.727000
     76 O2           6.0940     0.6890     0.9480 oh         1 3HI      -0.545100
@<TRIPOS>BOND
     1     1     2 1   
     2     1     4 1   
     3     1    27 1   
     4     2    23 1   
     5     2    30 2   
     6     3     7 1   
     7     3    27 1   
     8     3    28 1   
     9     3    41 1   
    10     4     5 1   
    11     4    42 1   
    12     4    43 1   
    13     5    21 1   
    14     5    44 1   
    15     5    45 1   
    16     6    19 1   
    17     6    21 1   
    18     6    46 1   
    19     6    47 1   
    20     7    48 1   
    21     7    49 1   
    22     7    50 1   
    23     8    24 ar  
    24     8    26 ar  
    25     8    51 1   
    26     9    10 ar  
    27     9    38 ar  
    28     9    52 1   
    29    10    40 ar  
    30    10    53 1   
    31    11    13 ar  
    32    11    23 ar  
    33    11    54 1   
    34    12    15 ar  
    35    12    32 ar  
    36    12    55 1   
    37    13    24 ar  
    38    13    56 1   
    39    14    38 ar  
    40    14    39 ar  
    41    14    76 1   
    42    15    33 ar  
    43    15    57 1   
    44    16    75 1   
    45    17    75 1   
    46    18    19 1   
    47    18    58 1   
    48    18    59 1   
    49    18    75 1   
    50    19    20 1   
    51    19    60 1   
    52    20    61 1   
    53    21    22 1   
    54    21    62 1   
    55    22    63 1   
    56    23    26 ar  
    57    24    25 1   
    58    26    64 1   
    59    27    29 2   
    60    28    65 1   
    61    28    66 1   
    62    28    67 1   
    63    29    30 1   
    64    29    35 1   
    65    30    31 1   
    66    31    32 ar  
    67    31    34 ar  
    68    32    68 1   
    69    33    34 ar  
    70    33    69 1   
    71    34    70 1   
    72    35    36 2   
    73    35    37 1   
    74    37    38 1   
    75    37    71 1   
    76    39    40 ar  
    77    39    73 1   
    78    40    74 1   
    79    72    76 1   
@<TRIPOS>SUBSTRUCTURE
     1 3HI         1 TEMP              0 ****  ****    0 ROOT
