@<TRIPOS>MOLECULE
3HI
   76    79     1     0     0
SMALL
abcg2


@<TRIPOS>ATOM
      1 N1          -0.2810    -0.4550     0.8700 na         1 3HI       0.046000
      2 C5           0.3280     0.7240     0.5180 cc         1 3HI      -0.115000
      3 C6           0.1650    -2.9300     0.9280 c3         1 3HI       0.002600
      4 C7          -1.6710    -0.5310     1.2860 c3         1 3HI       0.059600
      5 C8          -2.6190    -0.7130     0.1080 c3         1 3HI      -0.137400
      6 C10         -5.0040    -0.9000    -0.6710 c3         1 3HI      -0.147400
      7 C13          1.2010    -3.6480     1.7940 c3         1 3HI      -0.088100
      8 C15         -1.3110     3.9240    -0.5890 ca         1 3HI      -0.155500
      9 C17          5.8570    -2.6200    -0.7030 ca         1 3HI      -0.108000
     10 C20          7.2050    -2.7990    -0.9930 ca         1 3HI      -0.121000
     11 C21         -0.6680     2.6340     1.7880 ca         1 3HI      -0.065000
     12 C22          3.7850     3.4880    -0.1800 ca         1 3HI      -0.114000
     13 C24         -1.3030     3.8660     1.8290 ca         1 3HI      -0.155500
     14 C26          6.3730    -0.5030     0.3240 ca         1 3HI       0.083100
     15 C28          4.4450     3.2660    -1.3810 ca         1 3HI      -0.117000
     16 O7          -8.5820    -3.2920    -0.7730 o          1 3HI      -0.735500
     17 O6          -9.6330    -1.6550    -1.8550 o          1 3HI      -0.735500
     18 C35         -7.2710    -1.4880    -1.5910 c3         1 3HI      -0.233400
     19 C11         -6.3790    -1.4840    -0.3580 c3         1 3HI       0.187300
     20 O3          -7.0170    -0.8400     0.7290 oh         1 3HI      -0.640000
     21 C9          -4.0850    -0.7220     0.5380 c3         1 3HI       0.170300
     22 O4          -4.4050     0.4380     1.2860 oh         1 3HI      -0.655000
     23 C27         -0.3550     2.0260     0.5720 ca         1 3HI      -0.036000
     24 C30         -1.6130     4.4880     0.6350 ca         1 3HI       0.176000
     25 F1          -2.2240     5.6830     0.6660 f          1 3HI      -0.180000
     26 C18         -0.6830     2.6870    -0.6100 ca         1 3HI      -0.065000
     27 C12          0.5530    -1.5090     0.6230 cc         1 3HI      -0.072300
     28 C14         -0.1530    -3.7250    -0.3410 c3         1 3HI      -0.088100
     29 C2           1.7350    -0.9830     0.1280 cd         1 3HI      -0.230600
     30 C1           1.5900     0.4360     0.0610 cd         1 3HI      -0.078000
     31 C31          2.5660     1.4150    -0.4390 ca         1 3HI      -0.008000
     32 C25          2.8570     2.5700     0.2870 ca         1 3HI      -0.095500
     33 C19          4.1650     2.1190    -2.1130 ca         1 3HI      -0.114000
     34 C16          3.2320     1.2060    -1.6470 ca         1 3HI      -0.095500
     35 C3           2.9570    -1.7240    -0.2490 c          1 3HI       0.653700
     36 O1           2.9510    -2.7120    -0.9680 o          1 3HI      -0.599100
     37 N2           4.0920    -1.1880     0.2740 ns         1 3HI      -0.134000
     38 C32          5.4210    -1.4690    -0.0530 ca         1 3HI      -0.035000
     39 C23          7.7150    -0.6910     0.0330 ca         1 3HI      -0.182000
     40 C29          8.1330    -1.8380    -0.6320 ca         1 3HI      -0.107000
     41 H6          -0.7520    -2.9040     1.5210 hc         1 3HI       0.047700
     42 H7          -1.7900    -1.3400     2.0050 h1         1 3HI       0.071200
     43 H7A         -1.9110     0.3840     1.8210 h1         1 3HI       0.071200
     44 H8          -2.4530     0.0850    -0.6250 hc         1 3HI       0.055200
     45 H8A         -2.3960    -1.6530    -0.4000 hc         1 3HI       0.055200
     46 H10         -4.5230    -1.5620    -1.3970 hc         1 3HI       0.038700
     47 H10A        -5.1030     0.0700    -1.1780 hc         1 3HI       0.038700
     48 H13          2.1330    -3.8280     1.2600 hc         1 3HI       0.042700
     49 H13A         1.4290    -3.0810     2.6960 hc         1 3HI       0.042700
     50 H13B         0.8110    -4.6200     2.0990 hc         1 3HI       0.042700
     51 H15         -1.5620     4.4340    -1.5090 ha         1 3HI       0.133000
     52 H17          5.1470    -3.3810    -0.9820 ha         1 3HI       0.149000
     53 H20          7.5210    -3.7000    -1.5010 ha         1 3HI       0.113000
     54 H21         -0.4030     2.1480     2.7180 ha         1 3HI       0.125000
     55 H22          3.9990     4.3770     0.4000 ha         1 3HI       0.108000
     56 H24         -1.5420     4.3360     2.7740 ha         1 3HI       0.133000
     57 H28          5.1720     3.9810    -1.7460 ha         1 3HI       0.105000
     58 H35         -6.7420    -1.9980    -2.4050 hc         1 3HI       0.018200
     59 H35A        -7.4310    -0.4590    -1.9310 hc         1 3HI       0.018200
     60 H11         -6.2390    -2.5190    -0.0340 h1         1 3HI       0.082700
     61 HO3         -6.9680     0.1110     0.5890 ho         1 3HI       0.419000
     62 H9          -4.2320    -1.5590     1.2290 h1         1 3HI       0.083700
     63 HO4         -4.2890     1.2020     0.7100 ho         1 3HI       0.430000
     64 H18         -0.4450     2.2310    -1.5620 ha         1 3HI       0.125000
     65 H14         -0.4920    -4.7290    -0.0810 hc         1 3HI       0.042700
     66 H14A        -0.9450    -3.2500    -0.9220 hc         1 3HI       0.042700
     67 H14B         0.7250    -3.8120    -0.9770 hc         1 3HI       0.042700
     68 H25          2.3650     2.7450     1.2360 ha         1 3HI       0.119000
     69 H19          4.6690     1.9370    -3.0530 ha         1 3HI       0.108000
     70 H16          3.0130     0.3240    -2.2380 ha         1 3HI       0.119000
     71 HN2          3.9630    -0.3700     0.8510 hn         1 3HI       0.175000
     72 HO2          6.6050     1.2250     1.1230 ho         1 3HI       0.467000
     73 H23          8.4360     0.0640     0.3260 ha         1 3HI       0.107000
     74 H29          9.1830    -1.9730    -0.8560 ha         1 3HI       0.108000
     75 C36         -8.6170    -2.2010    -1.3780 c          1 3HI       0.727000
     76 O2           5.9050     0.5800     0.9760 oh         1 3HI      -0.545100
@<TRIPOS>BOND
     1     1     2 1   
     2     1     4 1   
     3     1    27 1   
     4     2    23 1   
     5     2    30 2   
     6     3     7 1   
     7     3    27 1   
     8     3    28 1   
     9     3    41 1   
    10     4     5 1   
    11     4    42 1   
    12     4    43 1   
    13     5    21 1   
    14     5    44 1   
    15     5    45 1   
    16     6    19 1   
    17     6    21 1   
    18     6    46 1   
    19     6    47 1   
    20     7    48 1   
    21     7    49 1   
    22     7    50 1   
    23     8    24 ar  
    24     8    26 ar  
    25     8    51 1   
    26     9    10 ar  
    27     9    38 ar  
    28     9    52 1   
    29    10    40 ar  
    30    10    53 1   
    31    11    13 ar  
    32    11    23 ar  
    33    11    54 1   
    34    12    15 ar  
    35    12    32 ar  
    36    12    55 1   
    37    13    24 ar  
    38    13    56 1   
    39    14    38 ar  
    40    14    39 ar  
    41    14    76 1   
    42    15    33 ar  
    43    15    57 1   
    44    16    75 1   
    45    17    75 1   
    46    18    19 1   
    47    18    58 1   
    48    18    59 1   
    49    18    75 1   
    50    19    20 1   
    51    19    60 1   
    52    20    61 1   
    53    21    22 1   
    54    21    62 1   
    55    22    63 1   
    56    23    26 ar  
    57    24    25 1   
    58    26    64 1   
    59    27    29 2   
    60    28    65 1   
    61    28    66 1   
    62    28    67 1   
    63    29    30 1   
    64    29    35 1   
    65    30    31 1   
    66    31    32 ar  
    67    31    34 ar  
    68    32    68 1   
    69    33    34 ar  
    70    33    69 1   
    71    34    70 1   
    72    35    36 2   
    73    35    37 1   
    74    37    38 1   
    75    37    71 1   
    76    39    40 ar  
    77    39    73 1   
    78    40    74 1   
    79    72    76 1   
@<TRIPOS>SUBSTRUCTURE
     1 3HI         1 TEMP              0 ****  ****    0 ROOT
