@<TRIPOS>MOLECULE
3HJ
   51    54     1     0     0
SMALL
abcg2


@<TRIPOS>ATOM
      1 C13          2.6570   -30.8310   -32.1150 ca         1 3HJ      -0.085000
      2 C15          4.1850   -27.4670   -32.1140 cc         1 3HJ      -0.158000
      3 N20          6.0890   -23.6120   -33.1580 ns         1 3HJ      -0.175000
      4 C21          7.0680   -23.5010   -34.1710 ca         1 3HJ      -0.034000
      5 C23          9.1680   -22.5710   -34.9130 ca         1 3HJ      -0.084500
      6 C24          9.0070   -23.1760   -36.1570 ca         1 3HJ      -0.124000
      7 C25          7.8670   -23.9330   -36.4060 ca         1 3HJ      -0.084500
      8 C27          5.6370   -28.3870   -33.5160 cd         1 3HJ       0.221900
      9 C29          0.8410   -35.5020   -33.6120 ca         1 3HJ      -0.194000
     10 C30          0.8800   -36.6850   -34.3350 ca         1 3HJ       0.361900
     11 C02          3.1370   -36.5530   -34.6970 ca         1 3HJ       0.375300
     12 C03          3.2020   -35.3600   -33.9900 ca         1 3HJ      -0.223000
     13 C04          2.0420   -34.8130   -33.4320 ca         1 3HJ       0.020000
     14 N05          2.1670   -33.6060   -32.7440 ns         1 3HJ      -0.144000
     15 C06          1.2140   -32.9070   -32.0540 c          1 3HJ       0.621700
     16 O07          0.0680   -33.3060   -31.8890 o          1 3HJ      -0.570100
     17 C08          1.6750   -31.5980   -31.4920 ca         1 3HJ      -0.141600
     18 C09          1.0560   -31.1310   -30.3320 ca         1 3HJ      -0.063000
     19 C10          1.4420   -29.9140   -29.7880 ca         1 3HJ      -0.099000
     20 C11          2.4290   -29.1490   -30.3960 ca         1 3HJ      -0.105000
     21 C12          3.0280   -29.6040   -31.5690 ca         1 3HJ       0.022800
     22 N14          4.0050   -28.8200   -32.2190 na         1 3HJ       0.209000
     23 C16          5.2370   -27.1540   -32.9470 cd         1 3HJ      -0.044400
     24 N17          5.8210   -25.9250   -33.2360 ns         1 3HJ      -0.388100
     25 C18          5.4480   -24.7340   -32.6850 c          1 3HJ       0.663100
     26 O19          4.5940   -24.6450   -31.8030 o          1 3HJ      -0.631100
     27 C22          8.2110   -22.7390   -33.9210 ca         1 3HJ      -0.146500
     28 C26          6.8910   -24.0850   -35.4270 ca         1 3HJ      -0.146500
     29 N28          4.8860   -29.3850   -33.0720 nc         1 3HJ      -0.505800
     30 N31          1.9800   -37.2160   -34.8700 nb         1 3HJ      -0.692000
     31 H1           3.1180   -31.1450   -33.0390 ha         1 3HJ       0.142000
     32 H2           3.5630   -26.8440   -31.5030 h4         1 3HJ       0.187000
     33 H3           5.9710   -22.8130   -32.5540 hn         1 3HJ       0.171000
     34 H4          10.0480   -21.9750   -34.7090 ha         1 3HJ       0.119000
     35 H5           9.7580   -23.0520   -36.9260 ha         1 3HJ       0.120000
     36 H6           7.7200   -24.3920   -37.3760 ha         1 3HJ       0.119000
     37 H7           6.4360   -28.5670   -34.2180 h4         1 3HJ       0.041100
     38 H8          -0.0850   -35.1340   -33.2060 ha         1 3HJ       0.156000
     39 H9          -0.0420   -37.2380   -34.4880 h4         1 3HJ       0.020100
     40 H10          4.5190   -38.1710   -34.9240 hc         1 3HJ       0.051367
     41 H11          4.2480   -37.2390   -36.3920 hc         1 3HJ       0.051367
     42 H12          5.2530   -36.5650   -35.0960 hc         1 3HJ       0.051367
     43 H13          4.1510   -34.8520   -33.8720 ha         1 3HJ       0.119000
     44 H14          3.1020   -33.2270   -32.7190 hn         1 3HJ       0.160000
     45 H15          0.2860   -31.7270   -29.8630 ha         1 3HJ       0.141000
     46 H16          0.9800   -29.5570   -28.8770 ha         1 3HJ       0.127000
     47 H17          2.7340   -28.2110   -29.9540 ha         1 3HJ       0.131000
     48 H18          6.5850   -25.9360   -33.8950 hn         1 3HJ       0.333500
     49 H19          8.3410   -22.2830   -32.9480 ha         1 3HJ       0.123000
     50 H20          5.9860   -24.6360   -35.6480 ha         1 3HJ       0.123000
     51 C01          4.3660   -37.1600   -35.3080 c3         1 3HJ      -0.143400
@<TRIPOS>BOND
     1     1    17 ar  
     2     1    21 ar  
     3     1    31 1   
     4     2    22 1   
     5     2    23 2   
     6     2    32 1   
     7     3     4 1   
     8     3    25 1   
     9     3    33 1   
    10     4    27 ar  
    11     4    28 ar  
    12     5     6 ar  
    13     5    27 ar  
    14     5    34 1   
    15     6     7 ar  
    16     6    35 1   
    17     7    28 ar  
    18     7    36 1   
    19     8    23 1   
    20     8    29 2   
    21     8    37 1   
    22     9    10 ar  
    23     9    13 ar  
    24     9    38 1   
    25    10    30 ar  
    26    10    39 1   
    27    11    12 ar  
    28    11    30 ar  
    29    11    51 1   
    30    12    13 ar  
    31    12    43 1   
    32    13    14 1   
    33    14    15 1   
    34    14    44 1   
    35    15    16 2   
    36    15    17 1   
    37    17    18 ar  
    38    18    19 ar  
    39    18    45 1   
    40    19    20 ar  
    41    19    46 1   
    42    20    21 ar  
    43    20    47 1   
    44    21    22 1   
    45    22    29 1   
    46    23    24 1   
    47    24    25 1   
    48    24    48 1   
    49    25    26 2   
    50    27    49 1   
    51    28    50 1   
    52    40    51 1   
    53    41    51 1   
    54    42    51 1   
@<TRIPOS>SUBSTRUCTURE
     1 3HJ         1 TEMP              0 ****  ****    0 ROOT
