@<TRIPOS>MOLECULE
3HJ
   51    54     1     0     0
SMALL
No Charge or Current Charge


@<TRIPOS>ATOM
      1 C13          2.7410   -30.8630   -31.7750 ca         1 3HJ      -0.085000
      2 C15          3.9590   -27.4580   -32.1760 cc         1 3HJ      -0.158000
      3 N20          5.7580   -23.7030   -33.7400 ns         1 3HJ      -0.175000
      4 C21          6.9870   -23.7090   -34.4490 ca         1 3HJ      -0.034000
      5 C23          9.1090   -22.6060   -34.9400 ca         1 3HJ      -0.084500
      6 C24          9.4330   -23.6250   -35.8510 ca         1 3HJ      -0.124000
      7 C25          8.5300   -24.6770   -36.0770 ca         1 3HJ      -0.084500
      8 C27          5.9440   -28.3830   -32.7130 cd         1 3HJ       0.221900
      9 C29          1.1860   -35.8030   -33.1630 ca         1 3HJ      -0.194000
     10 C30          1.2510   -36.9740   -33.9340 ca         1 3HJ       0.361900
     11 C02          3.0140   -36.1510   -35.1840 ca         1 3HJ       0.375300
     12 C03          3.0140   -34.9460   -34.4620 ca         1 3HJ      -0.223000
     13 C04          2.0870   -34.7520   -33.4250 ca         1 3HJ       0.020000
     14 N05          2.1160   -33.5210   -32.7150 ns         1 3HJ      -0.144000
     15 C06          1.3560   -33.0320   -31.6590 c          1 3HJ       0.621700
     16 O07          0.4530   -33.6720   -31.1310 o          1 3HJ      -0.570100
     17 C08          1.7090   -31.6330   -31.1780 ca         1 3HJ      -0.141600
     18 C09          0.9890   -31.0700   -30.0990 ca         1 3HJ      -0.063000
     19 C10          1.2890   -29.7810   -29.6300 ca         1 3HJ      -0.099000
     20 C11          2.3120   -29.0310   -30.2290 ca         1 3HJ      -0.105000
     21 C12          3.0450   -29.5660   -31.3070 ca         1 3HJ       0.022800
     22 N14          4.0640   -28.8160   -31.9090 na         1 3HJ       0.209000
     23 C16          5.1870   -27.1830   -32.7050 cd         1 3HJ      -0.044400
     24 N17          5.6570   -25.9590   -33.1680 ns         1 3HJ      -0.388100
     25 C18          5.0140   -24.7350   -33.1950 c          1 3HJ       0.663100
     26 O19          3.8900   -24.5490   -32.7470 o          1 3HJ      -0.631100
     27 C22          7.8860   -22.6460   -34.2480 ca         1 3HJ      -0.146500
     28 C26          7.3070   -24.7170   -35.3840 ca         1 3HJ      -0.146500
     29 N28          5.2720   -29.4090   -32.2180 nc         1 3HJ      -0.505800
     30 N31          2.1470   -37.1530   -34.9300 nb         1 3HJ      -0.692000
     31 H1           3.3170   -31.2530   -32.6110 ha         1 3HJ       0.142000
     32 H2           3.0760   -26.8610   -31.9850 h4         1 3HJ       0.187000
     33 H3           5.3280   -22.7920   -33.6520 hn         1 3HJ       0.171000
     34 H4           9.8040   -21.7860   -34.7720 ha         1 3HJ       0.119000
     35 H5          10.3780   -23.5940   -36.3890 ha         1 3HJ       0.120000
     36 H6           8.7730   -25.4570   -36.7960 ha         1 3HJ       0.119000
     37 H7           6.9580   -28.5310   -33.0610 h4         1 3HJ       0.041100
     38 H8           0.4350   -35.7440   -32.3840 ha         1 3HJ       0.156000
     39 H9           0.5630   -37.7980   -33.7480 h4         1 3HJ       0.020100
     40 H10          4.3040   -37.4380   -36.3680 hc         1 3HJ       0.051367
     41 H11          3.5580   -36.1110   -37.2770 hc         1 3HJ       0.051367
     42 H12          4.9080   -35.7870   -36.1770 hc         1 3HJ       0.051367
     43 H13          3.7320   -34.1690   -34.7110 ha         1 3HJ       0.119000
     44 H14          2.8250   -32.8820   -33.0450 hn         1 3HJ       0.160000
     45 H15          0.1910   -31.6310   -29.6160 ha         1 3HJ       0.141000
     46 H16          0.7280   -29.3640   -28.7970 ha         1 3HJ       0.127000
     47 H17          2.5390   -28.0380   -29.8480 ha         1 3HJ       0.131000
     48 H18          6.5990   -25.9120   -33.5360 hn         1 3HJ       0.333500
     49 H19          7.6420   -21.8510   -33.5450 ha         1 3HJ       0.123000
     50 H20          6.6070   -25.5200   -35.6030 ha         1 3HJ       0.123000
     51 C01          4.0000   -36.3860   -36.3130 c3         1 3HJ      -0.143400
@<TRIPOS>BOND
     1     1    17 ar  
     2     1    21 ar  
     3     1    31 1   
     4     2    22 1   
     5     2    23 2   
     6     2    32 1   
     7     3     4 1   
     8     3    25 1   
     9     3    33 1   
    10     4    27 ar  
    11     4    28 ar  
    12     5     6 ar  
    13     5    27 ar  
    14     5    34 1   
    15     6     7 ar  
    16     6    35 1   
    17     7    28 ar  
    18     7    36 1   
    19     8    23 1   
    20     8    29 2   
    21     8    37 1   
    22     9    10 ar  
    23     9    13 ar  
    24     9    38 1   
    25    10    30 ar  
    26    10    39 1   
    27    11    12 ar  
    28    11    30 ar  
    29    11    51 1   
    30    12    13 ar  
    31    12    43 1   
    32    13    14 1   
    33    14    15 1   
    34    14    44 1   
    35    15    16 2   
    36    15    17 1   
    37    17    18 ar  
    38    18    19 ar  
    39    18    45 1   
    40    19    20 ar  
    41    19    46 1   
    42    20    21 ar  
    43    20    47 1   
    44    21    22 1   
    45    22    29 1   
    46    23    24 1   
    47    24    25 1   
    48    24    48 1   
    49    25    26 2   
    50    27    49 1   
    51    28    50 1   
    52    40    51 1   
    53    41    51 1   
    54    42    51 1   
@<TRIPOS>SUBSTRUCTURE
     1 3HJ         1 TEMP              0 ****  ****    0 ROOT
