@<TRIPOS>MOLECULE
3HK
   58    62     1     0     0
SMALL
No Charge or Current Charge


@<TRIPOS>ATOM
      1 N4           9.2190     4.4380    -0.0360 n1         1 3HK      -0.456000
      2 C21          8.4530     3.5560    -0.0260 cg         1 3HK       0.326000
      3 C18          7.5010     2.4780    -0.0170 ca         1 3HK      -0.019000
      4 C17          7.9400     1.1440    -0.0200 ca         1 3HK      -0.076000
      5 C16          7.0080     0.0920    -0.0110 ca         1 3HK      -0.098000
      6 C19          6.1230     2.7480    -0.0050 ca         1 3HK      -0.076000
      7 C20          5.1910     1.6950     0.0040 ca         1 3HK      -0.098000
      8 C15          5.6130     0.3440     0.0020 ca         1 3HK      -0.086500
      9 C14          4.6630    -0.7950     0.0110 cc         1 3HK       0.325500
     10 C12          3.2500    -0.7730     0.0230 cc         1 3HK      -0.200300
     11 C11          2.1920     0.3210     0.0320 c5         1 3HK       0.053200
     12 N3           5.0820    -2.0690     0.0080 nd         1 3HK      -0.515800
     13 N2           3.8990    -2.8440     0.0190 na         1 3HK       0.030800
     14 C13          2.7950    -2.0080     0.0280 cd         1 3HK      -0.106000
     15 C22          1.3700    -2.0270     0.0410 ca         1 3HK      -0.030000
     16 C10          0.9930    -0.6800     0.0430 ca         1 3HK      -0.070300
     17 C9          -0.3710    -0.3520     0.0550 ca         1 3HK      -0.161000
     18 C23          0.4580    -3.0840     0.0490 ca         1 3HK      -0.144000
     19 C24         -0.9220    -2.7610     0.0620 ca         1 3HK       0.111100
     20 O3          -1.8960    -3.7470     0.0710 os         1 3HK      -0.319100
     21 C25         -1.5740    -5.1490     0.0680 c3         1 3HK       0.144900
     22 C8          -1.3350    -1.3970     0.0650 ca         1 3HK       0.128100
     23 O2          -2.6930    -1.1240     0.0760 os         1 3HK      -0.324100
     24 C7          -3.2120     0.2170     0.0790 c3         1 3HK       0.160600
     25 C6          -4.7470     0.1230     0.0910 c3         1 3HK      -0.083400
     26 C5          -5.4200     1.5120     0.0900 c3         1 3HK       0.169800
     27 N1          -6.8940     1.4870     0.2540 n3         1 3HK      -0.711600
     28 C2          -7.6240     0.7900    -0.8560 c6         1 3HK       0.124300
     29 C1          -9.1670     0.8020    -0.6340 c6         1 3HK       0.153100
     30 C3          -7.4620     2.8550     0.4720 c6         1 3HK       0.124300
     31 C4          -9.0070     2.8200     0.6690 c6         1 3HK       0.153100
     32 O1          -9.6400     2.1580    -0.4510 os         1 3HK      -0.449000
     33 H21          9.0050     0.9170    -0.0290 ha         1 3HK       0.125000
     34 H20          7.3850    -0.9280    -0.0130 ha         1 3HK       0.127500
     35 H22          5.7670     3.7770    -0.0020 ha         1 3HK       0.125000
     36 H23          4.1420     1.9580     0.0130 ha         1 3HK       0.127500
     37 H18          2.2310     0.9500     0.9290 hc         1 3HK       0.070700
     38 H19          2.2140     0.9490    -0.8660 hc         1 3HK       0.070700
     39 H2           3.9050    -3.8630     0.0190 hn         1 3HK       0.377000
     40 H17         -0.6600     0.6940     0.0570 ha         1 3HK       0.124000
     41 H24          0.8190    -4.1080     0.0470 ha         1 3HK       0.122000
     42 H25         -0.9860    -5.4160     0.9560 h1         1 3HK       0.040700
     43 H27         -2.4930    -5.7490     0.0770 h1         1 3HK       0.040700
     44 H26         -1.0020    -5.4170    -0.8290 h1         1 3HK       0.040700
     45 H15         -2.8700     0.7630     0.9680 h1         1 3HK       0.032200
     46 H16         -2.8850     0.7600    -0.8170 h1         1 3HK       0.032200
     47 H13         -5.0700    -0.4490    -0.7860 hc         1 3HK       0.065200
     48 H14         -5.0660    -0.4300     0.9830 hc         1 3HK       0.065200
     49 H12         -4.9810     2.0930     0.9130 h1         1 3HK       0.030700
     50 H11         -5.1560     2.0310    -0.8430 h1         1 3HK       0.030700
     51 H6          -7.4030     1.2720    -1.8200 h1         1 3HK       0.041450
     52 H5          -7.3030    -0.2580    -0.9370 h1         1 3HK       0.041450
     53 H4          -9.6730     0.3580    -1.5030 h1         1 3HK       0.051200
     54 H3          -9.4230     0.2050     0.2530 h1         1 3HK       0.051200
     55 H7          -7.0050     3.3210     1.3570 h1         1 3HK       0.041450
     56 H8          -7.2330     3.5040    -0.3870 h1         1 3HK       0.041450
     57 H10         -9.2550     2.2850     1.5970 h1         1 3HK       0.051200
     58 H9          -9.3970     3.8440     0.7500 h1         1 3HK       0.051200
@<TRIPOS>BOND
     1     1     2 3   
     2     2     3 1   
     3     3     4 ar  
     4     3     6 ar  
     5     4     5 ar  
     6     4    33 1   
     7     5     8 ar  
     8     5    34 1   
     9     6     7 ar  
    10     6    35 1   
    11     7     8 ar  
    12     7    36 1   
    13     8     9 1   
    14     9    10 1   
    15     9    12 2   
    16    10    11 1   
    17    10    14 2   
    18    11    16 1   
    19    11    37 1   
    20    11    38 1   
    21    12    13 1   
    22    13    14 1   
    23    13    39 1   
    24    14    15 1   
    25    15    16 ar  
    26    15    18 ar  
    27    16    17 ar  
    28    17    22 ar  
    29    17    40 1   
    30    18    19 ar  
    31    18    41 1   
    32    19    20 1   
    33    19    22 ar  
    34    20    21 1   
    35    21    42 1   
    36    21    43 1   
    37    21    44 1   
    38    22    23 1   
    39    23    24 1   
    40    24    25 1   
    41    24    45 1   
    42    24    46 1   
    43    25    26 1   
    44    25    47 1   
    45    25    48 1   
    46    26    27 1   
    47    26    49 1   
    48    26    50 1   
    49    27    28 1   
    50    27    30 1   
    51    28    29 1   
    52    28    51 1   
    53    28    52 1   
    54    29    32 1   
    55    29    53 1   
    56    29    54 1   
    57    30    31 1   
    58    30    55 1   
    59    30    56 1   
    60    31    32 1   
    61    31    57 1   
    62    31    58 1   
@<TRIPOS>SUBSTRUCTURE
     1 3HK         1 TEMP              0 ****  ****    0 ROOT
