@<TRIPOS>MOLECULE
3HK
   58    62     1     0     0
SMALL
abcg2


@<TRIPOS>ATOM
      1 N4           9.3240     4.2450     0.0040 n1         1 3HK      -0.456000
      2 C21          8.5270     3.4130    -0.0020 cg         1 3HK       0.326000
      3 C18          7.5410     2.3820    -0.0070 ca         1 3HK      -0.019000
      4 C17          7.9290     1.0450    -0.1130 ca         1 3HK      -0.076000
      5 C16          6.9720     0.0520    -0.1170 ca         1 3HK      -0.098000
      6 C19          6.1910     2.7120     0.0950 ca         1 3HK      -0.076000
      7 C20          5.2400     1.7080     0.0900 ca         1 3HK      -0.098000
      8 C15          5.6130     0.3660    -0.0140 ca         1 3HK      -0.086500
      9 C14          4.5960    -0.6820    -0.0140 cc         1 3HK       0.325500
     10 C12          3.1950    -0.5700     0.0310 cc         1 3HK      -0.200300
     11 C11          2.0320     0.3710     0.0800 c5         1 3HK       0.053200
     12 N3           4.9490    -1.9670    -0.0590 nd         1 3HK      -0.515800
     13 N2           3.8180    -2.6650    -0.0450 na         1 3HK       0.030800
     14 C13          2.7430    -1.8680     0.0080 cd         1 3HK      -0.106000
     15 C22          1.2980    -1.9260     0.0430 ca         1 3HK      -0.030000
     16 C10          0.8670    -0.5990     0.0840 ca         1 3HK      -0.070300
     17 C9          -0.4890    -0.3120     0.1230 ca         1 3HK      -0.161000
     18 C23          0.3920    -2.9830     0.0430 ca         1 3HK      -0.144000
     19 C24         -0.9630    -2.6970     0.0830 ca         1 3HK       0.111100
     20 O3          -1.9400    -3.6220     0.0860 os         1 3HK      -0.319100
     21 C25         -1.5680    -4.9840     0.0470 c3         1 3HK       0.144900
     22 C8          -1.4070    -1.3540     0.1230 ca         1 3HK       0.128100
     23 O2          -2.7430    -1.1970     0.1610 os         1 3HK      -0.324100
     24 C7          -3.2700     0.1190     0.1380 c3         1 3HK       0.160600
     25 C6          -4.7810     0.0230     0.1720 c3         1 3HK      -0.083400
     26 C5          -5.4020     1.4090     0.0380 c3         1 3HK       0.169800
     27 N1          -6.8390     1.4140     0.2270 n3         1 3HK      -0.711600
     28 C2          -7.5500     0.7380    -0.8440 c6         1 3HK       0.124300
     29 C1          -9.0450     0.7780    -0.5890 c6         1 3HK       0.153100
     30 C3          -7.3400     2.7710     0.3620 c6         1 3HK       0.124300
     31 C4          -8.8380     2.7610     0.5940 c6         1 3HK       0.153100
     32 O1          -9.5180     2.0990    -0.4490 os         1 3HK      -0.449000
     33 H21          8.9770     0.7890    -0.1950 ha         1 3HK       0.125000
     34 H20          7.2800    -0.9810    -0.2010 ha         1 3HK       0.127500
     35 H22          5.8870     3.7460     0.1810 ha         1 3HK       0.125000
     36 H23          4.1970     1.9810     0.1750 ha         1 3HK       0.127500
     37 H18          2.0270     1.0040     0.9730 hc         1 3HK       0.070700
     38 H19          1.9900     1.0450    -0.7810 hc         1 3HK       0.070700
     39 H2           3.8580    -3.6720    -0.0720 hn         1 3HK       0.377000
     40 H17         -0.8190     0.7190     0.1540 ha         1 3HK       0.124000
     41 H24          0.7480    -4.0050     0.0090 ha         1 3HK       0.122000
     42 H25         -0.9660    -5.2680     0.9150 h1         1 3HK       0.040700
     43 H27         -2.4910    -5.5570     0.0590 h1         1 3HK       0.040700
     44 H26         -1.0120    -5.2300    -0.8620 h1         1 3HK       0.040700
     45 H15         -2.9060     0.6900     1.0000 h1         1 3HK       0.032200
     46 H16         -2.9380     0.6410    -0.7670 h1         1 3HK       0.032200
     47 H13         -5.1130    -0.6300    -0.6380 hc         1 3HK       0.065200
     48 H14         -5.1050    -0.4280     1.1130 hc         1 3HK       0.065200
     49 H12         -4.9680     2.0620     0.8010 h1         1 3HK       0.030700
     50 H11         -5.1230     1.8430    -0.9370 h1         1 3HK       0.030700
     51 H6          -7.3270     1.1920    -1.8260 h1         1 3HK       0.041450
     52 H5          -7.2450    -0.3080    -0.8990 h1         1 3HK       0.041450
     53 H4          -9.5780     0.3270    -1.4270 h1         1 3HK       0.051200
     54 H3          -9.2740     0.1910     0.3120 h1         1 3HK       0.051200
     55 H7          -6.8540     3.2540     1.2140 h1         1 3HK       0.041450
     56 H8          -7.1150     3.3820    -0.5290 h1         1 3HK       0.041450
     57 H10         -9.0560     2.2820     1.5600 h1         1 3HK       0.051200
     58 H9          -9.2160     3.7840     0.6350 h1         1 3HK       0.051200
@<TRIPOS>BOND
     1     1     2 3   
     2     2     3 1   
     3     3     4 ar  
     4     3     6 ar  
     5     4     5 ar  
     6     4    33 1   
     7     5     8 ar  
     8     5    34 1   
     9     6     7 ar  
    10     6    35 1   
    11     7     8 ar  
    12     7    36 1   
    13     8     9 1   
    14     9    10 1   
    15     9    12 2   
    16    10    11 1   
    17    10    14 2   
    18    11    16 1   
    19    11    37 1   
    20    11    38 1   
    21    12    13 1   
    22    13    14 1   
    23    13    39 1   
    24    14    15 1   
    25    15    16 ar  
    26    15    18 ar  
    27    16    17 ar  
    28    17    22 ar  
    29    17    40 1   
    30    18    19 ar  
    31    18    41 1   
    32    19    20 1   
    33    19    22 ar  
    34    20    21 1   
    35    21    42 1   
    36    21    43 1   
    37    21    44 1   
    38    22    23 1   
    39    23    24 1   
    40    24    25 1   
    41    24    45 1   
    42    24    46 1   
    43    25    26 1   
    44    25    47 1   
    45    25    48 1   
    46    26    27 1   
    47    26    49 1   
    48    26    50 1   
    49    27    28 1   
    50    27    30 1   
    51    28    29 1   
    52    28    51 1   
    53    28    52 1   
    54    29    32 1   
    55    29    53 1   
    56    29    54 1   
    57    30    31 1   
    58    30    55 1   
    59    30    56 1   
    60    31    32 1   
    61    31    57 1   
    62    31    58 1   
@<TRIPOS>SUBSTRUCTURE
     1 3HK         1 TEMP              0 ****  ****    0 ROOT
