@<TRIPOS>MOLECULE
3HL
   14    13     1     0     0
SMALL
abcg2


@<TRIPOS>ATOM
      1 CA           1.0400     1.5250     2.0640 c3         1 3HL      -0.236400
      2 CB           1.0840     0.0170     1.8670 c3         1 3HL       0.178300
      3 OG1          0.0870    -0.6310     2.6420 oh         1 3HL      -0.657000
      4 CG2          0.9760    -0.3700     0.3980 c3         1 3HL      -0.125100
      5 C            1.2300     1.9550     3.5290 c          1 3HL       0.724000
      6 OA           2.1760     1.4230     4.1450 o          1 3HL      -0.739000
      7 OB           0.4460     2.8150     3.9800 o          1 3HL      -0.739000
      8 HA1          0.1010     1.9230     1.6620 hc         1 3HL       0.018200
      9 HA2          1.8420     1.9760     1.4680 hc         1 3HL       0.018200
     10 HB           2.0340    -0.3520     2.2600 h1         1 3HL       0.082700
     11 HOG1        -0.7710    -0.3090     2.3470 ho         1 3HL       0.419000
     12 HG21         1.0100    -1.4530     0.2710 hc         1 3HL       0.018700
     13 HG22         0.0420    -0.0070    -0.0390 hc         1 3HL       0.018700
     14 HG23         1.7970     0.0580    -0.1790 hc         1 3HL       0.018700
@<TRIPOS>BOND
     1     1     2 1   
     2     1     5 1   
     3     1     8 1   
     4     1     9 1   
     5     2     3 1   
     6     2     4 1   
     7     2    10 1   
     8     3    11 1   
     9     4    12 1   
    10     4    13 1   
    11     4    14 1   
    12     5     6 1   
    13     5     7 1   
@<TRIPOS>SUBSTRUCTURE
     1 3HL         1 TEMP              0 ****  ****    0 ROOT
