@<TRIPOS>MOLECULE
3HL
   14    13     1     0     0
SMALL
No Charge or Current Charge


@<TRIPOS>ATOM
      1 CA           1.0570     1.5470     2.0550 c3         1 3HL      -0.236400
      2 CB           1.0060     0.0120     1.8940 c3         1 3HL       0.178300
      3 OG1         -0.1820    -0.4970     2.5030 oh         1 3HL      -0.657000
      4 CG2          1.0140    -0.4230     0.4140 c3         1 3HL      -0.125100
      5 C            1.3160     1.9200     3.5200 c          1 3HL       0.724000
      6 OA           2.4740     1.9450     3.9090 o          1 3HL      -0.739000
      7 OB           0.3570     2.1720     4.2350 o          1 3HL      -0.739000
      8 HA1          0.0950     1.9440     1.7060 hc         1 3HL       0.018200
      9 HA2          1.9080     1.8680     1.4420 hc         1 3HL       0.018200
     10 HB           1.8960    -0.4220     2.3760 h1         1 3HL       0.082700
     11 HOG1        -0.9090     0.1040     2.2360 ho         1 3HL       0.419000
     12 HG21         0.9770    -1.5160     0.3320 hc         1 3HL       0.018700
     13 HG22         0.1550    -0.0060    -0.1250 hc         1 3HL       0.018700
     14 HG23         1.9300    -0.0790    -0.0830 hc         1 3HL       0.018700
@<TRIPOS>BOND
     1     1     2 1   
     2     1     5 1   
     3     1     8 1   
     4     1     9 1   
     5     2     3 1   
     6     2     4 1   
     7     2    10 1   
     8     3    11 1   
     9     4    12 1   
    10     4    13 1   
    11     4    14 1   
    12     5     6 1   
    13     5     7 1   
@<TRIPOS>SUBSTRUCTURE
     1 3HL         1 TEMP              0 ****  ****    0 ROOT
