@<TRIPOS>MOLECULE
3HM
   17    17     1     0     0
SMALL
No Charge or Current Charge


@<TRIPOS>ATOM
      1 CAH          3.3500    -0.9560    -0.0100 c3         1 3HM      -0.118400
      2 CAI          1.8720    -0.5870    -0.0300 ca         1 3HM       0.291300
      3 NAJ          1.0020    -1.6260    -0.0160 nb         1 3HM      -0.689000
      4 CAK         -0.3250    -1.3470    -0.0330 ca         1 3HM       0.317900
      5 CAE         -0.8430    -0.0370    -0.0630 ca         1 3HM      -0.144600
      6 CAF         -2.3370     0.1760    -0.0790 c          1 3HM       0.716600
      7 OAA         -3.0680    -0.8030    -0.0660 o          1 3HM      -0.716500
      8 OAG         -2.7620     1.3220    -0.1050 o          1 3HM      -0.716500
      9 CAD          0.0700     1.0460    -0.0770 ca         1 3HM      -0.146000
     10 CAC          1.4470     0.7700    -0.0600 ca         1 3HM       0.046100
     11 OAB          2.3450     1.8090    -0.0740 oh         1 3HM      -0.554100
     12 HAH          3.8460    -0.5320     0.8710 hc         1 3HM       0.032033
     13 HAHA         3.5060    -2.0420     0.0130 hc         1 3HM       0.032033
     14 HAHB         3.8600    -0.5680    -0.9000 hc         1 3HM       0.032033
     15 HAK         -0.9850    -2.2140    -0.0210 h4         1 3HM       0.034100
     16 HAD         -0.2890     2.0720    -0.1000 ha         1 3HM       0.132000
     17 HOAB         1.8500     2.6570    -0.0950 ho         1 3HM       0.452000
@<TRIPOS>BOND
     1     1     2 1   
     2     1    12 1   
     3     1    13 1   
     4     1    14 1   
     5     2     3 ar  
     6     2    10 ar  
     7     3     4 ar  
     8     4     5 ar  
     9     4    15 1   
    10     5     6 1   
    11     5     9 ar  
    12     6     7 1   
    13     6     8 1   
    14     9    10 ar  
    15     9    16 1   
    16    10    11 1   
    17    11    17 1   
@<TRIPOS>SUBSTRUCTURE
     1 3HM         1 TEMP              0 ****  ****    0 ROOT
