@<TRIPOS>MOLECULE
3HM
   17    17     1     0     0
SMALL
bcc


@<TRIPOS>ATOM
      1 CAH          3.3250    -0.9050    -0.0100 c3         1 3HM      -0.118400
      2 CAI          1.8620    -0.5870    -0.0300 ca         1 3HM       0.356600
      3 NAJ          0.9970    -1.5920    -0.0190 nb         1 3HM      -0.689000
      4 CAK         -0.3090    -1.3410    -0.0350 ca         1 3HM       0.383200
      5 CAE         -0.8410    -0.0590    -0.0640 ca         1 3HM      -0.209900
      6 CAF         -2.3420     0.1880    -0.0780 c          1 3HM       0.927200
      7 OAA         -3.0720    -0.8220    -0.0620 o          1 3HM      -0.821800
      8 OAG         -2.7070     1.3780    -0.1040 o          1 3HM      -0.821800
      9 CAD          0.0590     1.0000    -0.0770 ca         1 3HM      -0.164000
     10 CAC          1.4190     0.7430    -0.0610 ca         1 3HM      -0.019200
     11 OAB          2.3570     1.7110    -0.0720 oh         1 3HM      -0.515100
     12 HAH          3.8210    -0.4730     0.8610 hc         1 3HM       0.032033
     13 HAHA         3.4700    -1.9840     0.0150 hc         1 3HM       0.032033
     14 HAHB         3.8360    -0.5130    -0.8920 hc         1 3HM       0.032033
     15 HAK         -0.9660    -2.2030    -0.0250 h4         1 3HM       0.034100
     16 HAD         -0.3100     2.0190    -0.0990 ha         1 3HM       0.150000
     17 HOAB         1.9390     2.5800    -0.0930 ho         1 3HM       0.413000
@<TRIPOS>BOND
     1     1     2 1   
     2     1    12 1   
     3     1    13 1   
     4     1    14 1   
     5     2     3 ar  
     6     2    10 ar  
     7     3     4 ar  
     8     4     5 ar  
     9     4    15 1   
    10     5     6 1   
    11     5     9 ar  
    12     6     7 1   
    13     6     8 1   
    14     9    10 ar  
    15     9    16 1   
    16    10    11 1   
    17    11    17 1   
@<TRIPOS>SUBSTRUCTURE
     1 3HM         1 TEMP              0 ****  ****    0 ROOT
