@<TRIPOS>MOLECULE
3HN
   51    54     1     0     0
SMALL
No Charge or Current Charge


@<TRIPOS>ATOM
      1 C10         -0.7890    30.2110   -29.6310 ca         1 3HN      -0.099000
      2 C02         -2.9880    36.5590   -35.0410 ca         1 3HN       0.376300
      3 C03         -2.9180    35.3520   -34.3240 ca         1 3HN      -0.225000
      4 C04         -1.9260    35.1760   -33.3460 ca         1 3HN       0.020000
      5 N05         -1.8840    33.9420   -32.6420 ns         1 3HN      -0.144000
      6 C06         -1.0520    33.4670   -31.6350 c          1 3HN       0.621700
      7 O07         -0.1330    34.1260   -31.1600 o          1 3HN      -0.571100
      8 C08         -1.3430    32.0580   -31.1420 ca         1 3HN      -0.140600
      9 C09         -0.5470    31.5080   -30.1110 ca         1 3HN      -0.063000
     10 C11         -1.8290    29.4400   -30.1710 ca         1 3HN      -0.105000
     11 C12         -2.6380    29.9610   -31.2000 ca         1 3HN       0.021800
     12 C13         -2.3910    31.2670   -31.6790 ca         1 3HN      -0.084000
     13 N14         -3.6740    29.1910   -31.7430 na         1 3HN       0.210000
     14 C15         -3.5530    27.8360   -32.0230 cc         1 3HN      -0.157000
     15 C16         -4.8050    27.5350   -32.4780 cd         1 3HN      -0.046400
     16 N17         -5.2740    26.3020   -32.9190 ns         1 3HN      -0.388100
     17 C18         -4.6060    25.0930   -32.9880 c          1 3HN       0.662100
     18 O19         -3.4560    24.9310   -32.6040 o          1 3HN      -0.628100
     19 N20         -5.3560    24.0470   -33.4970 ns         1 3HN      -0.173000
     20 C21         -6.6200    24.0280   -34.1430 ca         1 3HN      -0.053000
     21 C22         -7.4870    22.9470   -33.8940 ca         1 3HN      -0.117500
     22 C23         -8.7430    22.8840   -34.5260 ca         1 3HN      -0.124000
     23 C24         -9.1280    23.8950   -35.4190 ca         1 3HN       0.154000
     24 F25        -10.3320    23.8320   -36.0280 f          1 3HN      -0.177000
     25 C26         -8.2610    24.9640   -35.6930 ca         1 3HN      -0.124000
     26 C27         -7.0050    25.0300   -35.0620 ca         1 3HN      -0.117500
     27 C28         -5.5880    28.7180   -32.4340 cd         1 3HN       0.222900
     28 N29         -4.9110    29.7570   -31.9760 nc         1 3HN      -0.504800
     29 C30         -1.0360    36.2470   -33.1320 ca         1 3HN      -0.191000
     30 C31         -1.1770    37.4200   -33.8890 ca         1 3HN       0.359900
     31 N32         -2.1350    37.5820   -34.8290 nb         1 3HN      -0.689000
     32 H1          -0.1690    29.8040   -28.8350 ha         1 3HN       0.128000
     33 H2          -3.6750    37.3930   -36.9260 hc         1 3HN       0.052033
     34 H3          -4.3920    35.8280   -36.5230 hc         1 3HN       0.052033
     35 H4          -4.9240    37.2870   -35.6710 hc         1 3HN       0.052033
     36 H5          -3.6330    34.5610   -34.5310 ha         1 3HN       0.118000
     37 H6          -2.5980    33.2880   -32.9320 hn         1 3HN       0.159000
     38 H7           0.2660    32.0860   -29.6740 ha         1 3HN       0.142000
     39 H8          -2.0090    28.4400   -29.7820 ha         1 3HN       0.131000
     40 H9          -3.0250    31.6470   -32.4770 ha         1 3HN       0.142000
     41 H10         -2.6480    27.2600   -31.8890 h4         1 3HN       0.187000
     42 H11         -6.2360    26.2360   -33.2290 hn         1 3HN       0.331500
     43 H12         -4.9010    23.1450   -33.4380 hn         1 3HN       0.172000
     44 H13         -7.1940    22.1590   -33.2030 ha         1 3HN       0.129500
     45 H14         -9.4160    22.0530   -34.3250 ha         1 3HN       0.139000
     46 H15         -8.5590    25.7330   -36.4010 ha         1 3HN       0.139000
     47 H16         -6.3310    25.8450   -35.3160 ha         1 3HN       0.129500
     48 H17         -6.6250    28.8440   -32.7200 h4         1 3HN       0.041100
     49 H18         -0.2390    36.2030   -32.3990 ha         1 3HN       0.156000
     50 H19         -0.5000    38.2600   -33.7380 h4         1 3HN       0.020100
     51 C01         -4.0520    36.7790   -36.0990 c3         1 3HN      -0.146400
@<TRIPOS>BOND
     1     1     9 ar  
     2     1    10 ar  
     3     1    32 1   
     4     2     3 ar  
     5     2    31 ar  
     6     2    51 1   
     7     3     4 ar  
     8     3    36 1   
     9     4     5 1   
    10     4    29 ar  
    11     5     6 1   
    12     5    37 1   
    13     6     7 2   
    14     6     8 1   
    15     8     9 ar  
    16     8    12 ar  
    17     9    38 1   
    18    10    11 ar  
    19    10    39 1   
    20    11    12 ar  
    21    11    13 1   
    22    12    40 1   
    23    13    14 1   
    24    13    28 1   
    25    14    15 2   
    26    14    41 1   
    27    15    16 1   
    28    15    27 1   
    29    16    17 1   
    30    16    42 1   
    31    17    18 2   
    32    17    19 1   
    33    19    20 1   
    34    19    43 1   
    35    20    21 ar  
    36    20    26 ar  
    37    21    22 ar  
    38    21    44 1   
    39    22    23 ar  
    40    22    45 1   
    41    23    24 1   
    42    23    25 ar  
    43    25    26 ar  
    44    25    46 1   
    45    26    47 1   
    46    27    28 2   
    47    27    48 1   
    48    29    30 ar  
    49    29    49 1   
    50    30    31 ar  
    51    30    50 1   
    52    33    51 1   
    53    34    51 1   
    54    35    51 1   
@<TRIPOS>SUBSTRUCTURE
     1 3HN         1 TEMP              0 ****  ****    0 ROOT
