@<TRIPOS>MOLECULE
3HN
   51    54     1     0     0
SMALL
abcg2


@<TRIPOS>ATOM
      1 C10         -1.0000    30.3470   -29.7590 ca         1 3HN      -0.099000
      2 C02         -3.0820    36.9720   -34.5420 ca         1 3HN       0.376300
      3 C03         -3.0840    35.7650   -33.8520 ca         1 3HN      -0.225000
      4 C04         -1.8940    35.2540   -33.3330 ca         1 3HN       0.020000
      5 N05         -1.9530    34.0330   -32.6600 ns         1 3HN      -0.144000
      6 C06         -0.9590    33.3690   -31.9950 c          1 3HN       0.621700
      7 O07          0.1720    33.8160   -31.8450 o          1 3HN      -0.571100
      8 C08         -1.3520    32.0360   -31.4370 ca         1 3HN      -0.140600
      9 C09         -0.6800    31.5830   -30.3010 ca         1 3HN      -0.063000
     10 C11         -1.9740    29.5490   -30.3460 ca         1 3HN      -0.105000
     11 C12         -2.6260    29.9910   -31.4960 ca         1 3HN       0.021800
     12 C13         -2.3210    31.2360   -32.0390 ca         1 3HN      -0.084000
     13 N14         -3.5930    29.1760   -32.1230 na         1 3HN       0.210000
     14 C15         -3.7280    27.8180   -32.0140 cc         1 3HN      -0.157000
     15 C16         -4.7990    27.4740   -32.8110 cd         1 3HN      -0.046400
     16 N17         -5.3590    26.2280   -33.0790 ns         1 3HN      -0.388100
     17 C18         -4.9320    25.0480   -32.5420 c          1 3HN       0.662100
     18 O19         -4.0250    24.9810   -31.7130 o          1 3HN      -0.628100
     19 N20         -5.5770    23.9110   -32.9730 ns         1 3HN      -0.173000
     20 C21         -6.6640    23.8000   -33.8700 ca         1 3HN      -0.053000
     21 C22         -7.8010    23.0950   -33.4730 ca         1 3HN      -0.117500
     22 C23         -8.8710    22.9340   -34.3430 ca         1 3HN      -0.124000
     23 C24         -8.7940    23.5070   -35.5990 ca         1 3HN       0.154000
     24 F25         -9.8460    23.3700   -36.4450 f          1 3HN      -0.177000
     25 C26         -7.6810    24.2080   -36.0250 ca         1 3HN      -0.124000
     26 C27         -6.6030    24.3390   -35.1570 ca         1 3HN      -0.117500
     27 C28         -5.2530    28.6940   -33.3650 cd         1 3HN       0.222900
     28 N29         -4.5190    29.7140   -32.9450 nc         1 3HN      -0.504800
     29 C30         -0.7220    35.9920   -33.5320 ca         1 3HN      -0.191000
     30 C31         -0.8230    37.1810   -34.2340 ca         1 3HN       0.359900
     31 N32         -1.9580    37.6800   -34.7330 nb         1 3HN      -0.689000
     32 H1          -0.4980    30.0000   -28.8660 ha         1 3HN       0.128000
     33 H2          -4.1710    38.4810   -35.5940 hc         1 3HN       0.052033
     34 H3          -4.7960    36.8390   -35.8310 hc         1 3HN       0.052033
     35 H4          -5.1010    37.6770   -34.3150 hc         1 3HN       0.052033
     36 H5          -4.0110    35.2210   -33.7180 ha         1 3HN       0.118000
     37 H6          -2.8710    33.6150   -32.6230 hn         1 3HN       0.159000
     38 H7           0.0780    32.2070   -29.8480 ha         1 3HN       0.142000
     39 H8          -2.2290    28.5960   -29.9040 ha         1 3HN       0.131000
     40 H9          -2.8220    31.5410   -32.9460 ha         1 3HN       0.142000
     41 H10         -3.0680    27.2130   -31.4250 h4         1 3HN       0.187000
     42 H11         -6.1570    26.2200   -33.6940 hn         1 3HN       0.331500
     43 H12         -5.3940    23.1150   -32.3810 hn         1 3HN       0.172000
     44 H13         -7.8450    22.6720   -32.4780 ha         1 3HN       0.129500
     45 H14         -9.7570    22.3870   -34.0470 ha         1 3HN       0.139000
     46 H15         -7.6490    24.6250   -37.0220 ha         1 3HN       0.139000
     47 H16         -5.7080    24.8470   -35.4920 ha         1 3HN       0.129500
     48 H17         -6.0800    28.8500   -34.0400 h4         1 3HN       0.041100
     49 H18          0.2260    35.6520   -33.1550 ha         1 3HN       0.156000
     50 H19          0.0720    37.7710   -34.4030 h4         1 3HN       0.020100
     51 C01         -4.3600    37.5280   -35.1050 c3         1 3HN      -0.146400
@<TRIPOS>BOND
     1     1     9 ar  
     2     1    10 ar  
     3     1    32 1   
     4     2     3 ar  
     5     2    31 ar  
     6     2    51 1   
     7     3     4 ar  
     8     3    36 1   
     9     4     5 1   
    10     4    29 ar  
    11     5     6 1   
    12     5    37 1   
    13     6     7 2   
    14     6     8 1   
    15     8     9 ar  
    16     8    12 ar  
    17     9    38 1   
    18    10    11 ar  
    19    10    39 1   
    20    11    12 ar  
    21    11    13 1   
    22    12    40 1   
    23    13    14 1   
    24    13    28 1   
    25    14    15 2   
    26    14    41 1   
    27    15    16 1   
    28    15    27 1   
    29    16    17 1   
    30    16    42 1   
    31    17    18 2   
    32    17    19 1   
    33    19    20 1   
    34    19    43 1   
    35    20    21 ar  
    36    20    26 ar  
    37    21    22 ar  
    38    21    44 1   
    39    22    23 ar  
    40    22    45 1   
    41    23    24 1   
    42    23    25 ar  
    43    25    26 ar  
    44    25    46 1   
    45    26    47 1   
    46    27    28 2   
    47    27    48 1   
    48    29    30 ar  
    49    29    49 1   
    50    30    31 ar  
    51    30    50 1   
    52    33    51 1   
    53    34    51 1   
    54    35    51 1   
@<TRIPOS>SUBSTRUCTURE
     1 3HN         1 TEMP              0 ****  ****    0 ROOT
