@<TRIPOS>MOLECULE
3HO
   26    25     1     0     0
SMALL
abcg2


@<TRIPOS>ATOM
      1 O1           3.4840    -0.3570    -1.2040 o          1 3HO      -0.737500
      2 C1           3.3570     0.1740    -0.0810 c          1 3HO       0.725000
      3 O2           4.2340     0.2500     0.8020 o          1 3HO      -0.737500
      4 C2           1.9920     0.8170     0.2170 c3         1 3HO      -0.236400
      5 C3           0.8160    -0.1020    -0.0830 c3         1 3HO       0.180300
      6 O3           0.9160    -1.3090     0.6570 oh         1 3HO      -0.655000
      7 C4          -0.5210     0.5960     0.1430 c3         1 3HO      -0.112400
      8 C5          -1.7400    -0.2760    -0.1300 c3         1 3HO      -0.071400
      9 C6          -3.0530     0.4790     0.0390 c3         1 3HO      -0.077400
     10 C7          -4.2830    -0.3890    -0.1920 c3         1 3HO      -0.076400
     11 C8          -5.5890     0.3740    -0.0150 c3         1 3HO      -0.087100
     12 H2           1.9400     1.1500     1.2600 hc         1 3HO       0.018200
     13 H2A          1.8950     1.7200    -0.3980 hc         1 3HO       0.018200
     14 H3           0.8750    -0.4060    -1.1320 h1         1 3HO       0.082700
     15 HO3          0.9030    -1.0830     1.5930 ho         1 3HO       0.421000
     16 H4          -0.5650     0.9780     1.1710 hc         1 3HO       0.028700
     17 H4A         -0.5540     1.4780    -0.5050 hc         1 3HO       0.028700
     18 H5          -1.6810    -0.6790    -1.1470 hc         1 3HO       0.041200
     19 H5A         -1.7330    -1.1400     0.5410 hc         1 3HO       0.041200
     20 H6          -3.0970     0.9080     1.0460 hc         1 3HO       0.030200
     21 H6A         -3.0750     1.3290    -0.6520 hc         1 3HO       0.030200
     22 H7          -4.2420    -0.8180    -1.1980 hc         1 3HO       0.035200
     23 H7A         -4.2610    -1.2380     0.4990 hc         1 3HO       0.035200
     24 H8          -5.6660     0.7920     0.9900 hc         1 3HO       0.024700
     25 H8A         -5.6610     1.2030    -0.7210 hc         1 3HO       0.024700
     26 H8B         -6.4550    -0.2700    -0.1720 hc         1 3HO       0.024700
@<TRIPOS>BOND
     1     1     2 1   
     2     2     3 1   
     3     2     4 1   
     4     4     5 1   
     5     4    12 1   
     6     4    13 1   
     7     5     6 1   
     8     5     7 1   
     9     5    14 1   
    10     6    15 1   
    11     7     8 1   
    12     7    16 1   
    13     7    17 1   
    14     8     9 1   
    15     8    18 1   
    16     8    19 1   
    17     9    10 1   
    18     9    20 1   
    19     9    21 1   
    20    10    11 1   
    21    10    22 1   
    22    10    23 1   
    23    11    24 1   
    24    11    25 1   
    25    11    26 1   
@<TRIPOS>SUBSTRUCTURE
     1 3HO         1 TEMP              0 ****  ****    0 ROOT
