@<TRIPOS>MOLECULE
3HO
   26    25     1     0     0
SMALL
No Charge or Current Charge


@<TRIPOS>ATOM
      1 O1           3.7300     0.1120    -1.2430 o          1 3HO      -0.737500
      2 C1           3.3120     0.1390    -0.0960 c          1 3HO       0.725000
      3 O2           3.8020    -0.4960     0.8250 o          1 3HO      -0.737500
      4 C2           2.0160     0.9020     0.1860 c3         1 3HO      -0.236400
      5 C3           0.8220    -0.0640     0.0530 c3         1 3HO       0.180300
      6 O3           0.9450    -1.0590     1.0730 oh         1 3HO      -0.655000
      7 C4          -0.5430     0.6560     0.1890 c3         1 3HO      -0.112400
      8 C5          -1.7680    -0.2590    -0.0550 c3         1 3HO      -0.071400
      9 C6          -3.1130     0.4950     0.0390 c3         1 3HO      -0.077400
     10 C7          -4.3360    -0.4160    -0.2050 c3         1 3HO      -0.076400
     11 C8          -5.6770     0.3370    -0.1110 c3         1 3HO      -0.087100
     12 H2           1.9980     1.2690     1.2210 hc         1 3HO       0.018200
     13 H2A          1.8670     1.6930    -0.5590 hc         1 3HO       0.018200
     14 H3           0.8670    -0.5310    -0.9430 h1         1 3HO       0.082700
     15 HO3          1.9100    -1.1190     1.2640 ho         1 3HO       0.421000
     16 H4          -0.6200     1.1070     1.1870 hc         1 3HO       0.028700
     17 H4A         -0.5780     1.4810    -0.5320 hc         1 3HO       0.028700
     18 H5          -1.6820    -0.7180    -1.0470 hc         1 3HO       0.041200
     19 H5A         -1.7660    -1.0760     0.6770 hc         1 3HO       0.041200
     20 H6          -3.1990     0.9550     1.0320 hc         1 3HO       0.030200
     21 H6A         -3.1200     1.3110    -0.6940 hc         1 3HO       0.030200
     22 H7          -4.2550    -0.8760    -1.1970 hc         1 3HO       0.035200
     23 H7A         -4.3340    -1.2320     0.5290 hc         1 3HO       0.035200
     24 H8          -5.8050     0.7800     0.8840 hc         1 3HO       0.024700
     25 H8A         -5.7250     1.1390    -0.8570 hc         1 3HO       0.024700
     26 H8B         -6.5130    -0.3490    -0.2910 hc         1 3HO       0.024700
@<TRIPOS>BOND
     1     1     2 1   
     2     2     3 1   
     3     2     4 1   
     4     4     5 1   
     5     4    12 1   
     6     4    13 1   
     7     5     6 1   
     8     5     7 1   
     9     5    14 1   
    10     6    15 1   
    11     7     8 1   
    12     7    16 1   
    13     7    17 1   
    14     8     9 1   
    15     8    18 1   
    16     8    19 1   
    17     9    10 1   
    18     9    20 1   
    19     9    21 1   
    20    10    11 1   
    21    10    22 1   
    22    10    23 1   
    23    11    24 1   
    24    11    25 1   
    25    11    26 1   
@<TRIPOS>SUBSTRUCTURE
     1 3HO         1 TEMP              0 ****  ****    0 ROOT
