@<TRIPOS>MOLECULE
3HP
   18    18     1     0     0
SMALL
bcc


@<TRIPOS>ATOM
      1 C8          -0.2600     0.1310     2.4360 c          1 3HP       0.935600
      2 O1          -0.2150     1.2980     2.0120 o          1 3HP      -0.830800
      3 O2          -0.5580    -0.2390     3.5890 o          1 3HP      -0.830800
      4 C7           0.0980    -1.0110     1.4510 c3         1 3HP      -0.195100
      5 C1           0.3540    -0.5610     0.0480 ca         1 3HP       0.049700
      6 C2          -0.6890    -0.5010    -0.8730 ca         1 3HP      -0.221000
      7 C3          -0.4700    -0.0700    -2.1780 ca         1 3HP       0.122100
      8 C4           0.8080     0.3100    -2.5790 ca         1 3HP      -0.200000
      9 C5           1.8480     0.2480    -1.6630 ca         1 3HP      -0.104000
     10 C6           1.6300    -0.1840    -0.3620 ca         1 3HP      -0.161000
     11 O3          -1.4620    -0.0070    -3.0940 oh         1 3HP      -0.520100
     12 H71          0.9800    -1.5240     1.8450 hc         1 3HP       0.032200
     13 H72         -0.7090    -1.7490     1.4720 hc         1 3HP       0.032200
     14 H2          -1.6880    -0.7970    -0.5660 ha         1 3HP       0.124000
     15 H4           0.9820     0.6420    -3.5950 ha         1 3HP       0.120000
     16 H5           2.8430     0.5370    -1.9760 ha         1 3HP       0.107000
     17 H6           2.4560    -0.2300     0.3370 ha         1 3HP       0.127000
     18 HO3         -2.2930    -0.3020    -2.7070 ho         1 3HP       0.414000
@<TRIPOS>BOND
     1     1     2 1   
     2     1     3 1   
     3     1     4 1   
     4     4     5 1   
     5     4    12 1   
     6     4    13 1   
     7     5     6 ar  
     8     5    10 ar  
     9     6     7 ar  
    10     6    14 1   
    11     7     8 ar  
    12     7    11 1   
    13     8     9 ar  
    14     8    15 1   
    15     9    10 ar  
    16     9    16 1   
    17    10    17 1   
    18    11    18 1   
@<TRIPOS>SUBSTRUCTURE
     1 3HP         1 TEMP              0 ****  ****    0 ROOT
