@<TRIPOS>MOLECULE
3HP
   18    18     1     0     0
SMALL
No Charge or Current Charge


@<TRIPOS>ATOM
      1 C8          -0.1600     0.1440     2.4000 c          1 3HP       0.725000
      2 O1           0.7360     0.8270     2.8730 o          1 3HP      -0.725500
      3 O2          -1.3470     0.4150     2.5110 o          1 3HP      -0.725500
      4 C7           0.2290    -1.0400     1.5040 c3         1 3HP      -0.195100
      5 C1           0.3850    -0.5580     0.0670 ca         1 3HP       0.049700
      6 C2          -0.7010    -0.6200    -0.8290 ca         1 3HP      -0.203000
      7 C3          -0.5510    -0.1800    -2.1530 ca         1 3HP       0.122100
      8 C4           0.6810     0.3230    -2.5950 ca         1 3HP      -0.182000
      9 C5           1.7700     0.3890    -1.7100 ca         1 3HP      -0.086000
     10 C6           1.6210    -0.0510    -0.3830 ca         1 3HP      -0.143000
     11 O3          -1.6030    -0.2410    -3.0160 oh         1 3HP      -0.559100
     12 H71          1.2000    -1.4450     1.8150 hc         1 3HP       0.032200
     13 H72         -0.5660    -1.7950     1.5090 hc         1 3HP       0.032200
     14 H2          -1.6570    -1.0090    -0.4880 ha         1 3HP       0.106000
     15 H4           0.7950     0.6640    -3.6210 ha         1 3HP       0.102000
     16 H5           2.7260     0.7790    -2.0500 ha         1 3HP       0.089000
     17 H6           2.4670     0.0030     0.2980 ha         1 3HP       0.109000
     18 HO3         -2.3730    -0.6150    -2.5360 ho         1 3HP       0.453000
@<TRIPOS>BOND
     1     1     2 1   
     2     1     3 1   
     3     1     4 1   
     4     4     5 1   
     5     4    12 1   
     6     4    13 1   
     7     5     6 ar  
     8     5    10 ar  
     9     6     7 ar  
    10     6    14 1   
    11     7     8 ar  
    12     7    11 1   
    13     8     9 ar  
    14     8    15 1   
    15     9    10 ar  
    16     9    16 1   
    17    10    17 1   
    18    11    18 1   
@<TRIPOS>SUBSTRUCTURE
     1 3HP         1 TEMP              0 ****  ****    0 ROOT
