@<TRIPOS>MOLECULE
3HQ
   54    57     1     0     0
SMALL
abcg2


@<TRIPOS>ATOM
      1 C01          9.8490   -23.2150   -36.7060 c3         1 3HQ      -0.045800
      2 C02          8.7770   -23.4400   -35.6740 ca         1 3HQ      -0.087300
      3 C03          7.6340   -24.1810   -35.9700 ca         1 3HQ      -0.088000
      4 C04          6.6210   -24.3610   -35.0350 ca         1 3HQ      -0.140500
      5 C05          6.7500   -23.8230   -33.7540 ca         1 3HQ      -0.041000
      6 N06          5.7360   -23.9700   -32.7790 ns         1 3HQ      -0.174000
      7 C07          5.1030   -25.1130   -32.3560 c          1 3HQ       0.663100
      8 O08          4.2180   -25.0690   -31.5020 o          1 3HQ      -0.632100
      9 N09          5.5190   -26.2810   -32.9290 ns         1 3HQ      -0.390100
     10 C10          4.9490   -27.5290   -32.7040 cc         1 3HQ      -0.042400
     11 C11          5.4080   -28.7360   -33.2820 cc         1 3HQ       0.221900
     12 N12          4.6550   -29.7620   -32.9110 nd         1 3HQ      -0.506800
     13 N13          3.7130   -29.2410   -32.0960 na         1 3HQ       0.210000
     14 C14          3.8570   -27.8880   -31.9430 cd         1 3HQ      -0.159000
     15 C15          2.7160   -30.0650   -31.5320 ca         1 3HQ       0.023800
     16 C16          1.9990   -29.6420   -30.4150 ca         1 3HQ      -0.106000
     17 C17          0.9980   -30.4520   -29.8940 ca         1 3HQ      -0.099000
     18 C18          0.7130   -31.6820   -30.4690 ca         1 3HQ      -0.064000
     19 C19          1.4480   -32.1150   -31.5740 ca         1 3HQ      -0.141600
     20 C20          2.4460   -31.3040   -32.1090 ca         1 3HQ      -0.085000
     21 C21          1.0940   -33.4410   -32.1720 c          1 3HQ       0.621700
     22 O22         -0.0380   -33.8990   -32.0850 o          1 3HQ      -0.570100
     23 N23          2.1270   -34.0880   -32.7960 ns         1 3HQ      -0.145000
     24 C24          2.1110   -35.3040   -33.4790 ca         1 3HQ       0.020000
     25 C25          0.9560   -36.0290   -33.7790 ca         1 3HQ      -0.193000
     26 C26          1.1060   -37.2170   -34.4800 ca         1 3HQ       0.361900
     27 N27          2.2720   -37.7210   -34.8860 nb         1 3HQ      -0.691000
     28 C28          3.3840   -37.0220   -34.5970 ca         1 3HQ       0.375300
     29 C29          4.6900   -37.6020   -35.0580 c3         1 3HQ      -0.143400
     30 C30          3.3390   -35.8210   -33.9050 ca         1 3HQ      -0.223000
     31 C31          7.8890   -23.0800   -33.4430 ca         1 3HQ      -0.140500
     32 C32          8.8800   -22.8870   -34.3950 ca         1 3HQ      -0.088000
     33 H1           9.6550   -22.3020   -37.2760 hc         1 3HQ       0.045367
     34 H2          10.8290   -23.1080   -36.2400 hc         1 3HQ       0.045367
     35 H3           9.8900   -24.0420   -37.4170 hc         1 3HQ       0.045367
     36 H4           7.5190   -24.6140   -36.9580 ha         1 3HQ       0.117000
     37 H5           5.7270   -24.9050   -35.3090 ha         1 3HQ       0.123500
     38 H6           5.5770   -23.1840   -32.1660 hn         1 3HQ       0.171000
     39 H7           6.3090   -26.2550   -33.5560 hn         1 3HQ       0.333500
     40 H8           6.2510   -28.8800   -33.9400 h4         1 3HQ       0.041100
     41 H9           3.1900   -27.2950   -31.3500 h4         1 3HQ       0.187000
     42 H10          2.2210   -28.6930   -29.9470 ha         1 3HQ       0.131000
     43 H11          0.4460   -30.1200   -29.0250 ha         1 3HQ       0.127000
     44 H12         -0.0660   -32.3140   -30.0670 ha         1 3HQ       0.141000
     45 H13          2.9980   -31.5950   -32.9900 ha         1 3HQ       0.142000
     46 H14          3.0390   -33.6690   -32.6980 hn         1 3HQ       0.160000
     47 H15         -0.0180   -35.6860   -33.4800 ha         1 3HQ       0.155000
     48 H16          0.2220   -37.7970   -34.7270 h4         1 3HQ       0.020100
     49 H17          4.6810   -37.7370   -36.1420 hc         1 3HQ       0.051367
     50 H18          5.5280   -36.9600   -34.7920 hc         1 3HQ       0.051367
     51 H19          4.8450   -38.5860   -34.6090 hc         1 3HQ       0.051367
     52 H20          4.2540   -35.2830   -33.6910 ha         1 3HQ       0.119000
     53 H21          7.9940   -22.6600   -32.4510 ha         1 3HQ       0.123500
     54 H22          9.7580   -22.3070   -34.1350 ha         1 3HQ       0.117000
@<TRIPOS>BOND
     1     1     2 1   
     2     1    33 1   
     3     1    34 1   
     4     1    35 1   
     5     2     3 ar  
     6     2    32 ar  
     7     3     4 ar  
     8     3    36 1   
     9     4     5 ar  
    10     4    37 1   
    11     5     6 1   
    12     5    31 ar  
    13     6     7 1   
    14     6    38 1   
    15     7     8 2   
    16     7     9 1   
    17     9    10 1   
    18     9    39 1   
    19    10    11 1   
    20    10    14 2   
    21    11    12 2   
    22    11    40 1   
    23    12    13 1   
    24    13    14 1   
    25    13    15 1   
    26    14    41 1   
    27    15    16 ar  
    28    15    20 ar  
    29    16    17 ar  
    30    16    42 1   
    31    17    18 ar  
    32    17    43 1   
    33    18    19 ar  
    34    18    44 1   
    35    19    20 ar  
    36    19    21 1   
    37    20    45 1   
    38    21    22 2   
    39    21    23 1   
    40    23    24 1   
    41    23    46 1   
    42    24    25 ar  
    43    24    30 ar  
    44    25    26 ar  
    45    25    47 1   
    46    26    27 ar  
    47    26    48 1   
    48    27    28 ar  
    49    28    29 1   
    50    28    30 ar  
    51    29    49 1   
    52    29    50 1   
    53    29    51 1   
    54    30    52 1   
    55    31    32 ar  
    56    31    53 1   
    57    32    54 1   
@<TRIPOS>SUBSTRUCTURE
     1 3HQ         1 TEMP              0 ****  ****    0 ROOT
