@<TRIPOS>MOLECULE
3HQ
   54    57     1     0     0
SMALL
No Charge or Current Charge


@<TRIPOS>ATOM
      1 C01         10.2960   -23.5340   -36.1860 c3         1 3HQ      -0.045800
      2 C02          8.9340   -23.7380   -35.5400 ca         1 3HQ      -0.087300
      3 C03          8.2410   -24.9500   -35.7130 ca         1 3HQ      -0.088000
      4 C04          6.9800   -25.1390   -35.1200 ca         1 3HQ      -0.140500
      5 C05          6.4030   -24.1180   -34.3370 ca         1 3HQ      -0.041000
      6 N06          5.1260   -24.2610   -33.7340 ns         1 3HQ      -0.174000
      7 C07          4.5170   -25.3500   -33.1350 c          1 3HQ       0.663100
      8 O08          3.3390   -25.3240   -32.8030 o          1 3HQ      -0.632100
      9 N09          5.3510   -26.4300   -32.9160 ns         1 3HQ      -0.390100
     10 C10          5.0560   -27.6690   -32.3490 cc         1 3HQ      -0.042400
     11 C11          5.9690   -28.7310   -32.1430 cc         1 3HQ       0.221900
     12 N12          5.4390   -29.8090   -31.5980 nd         1 3HQ      -0.506800
     13 N13          4.1310   -29.3900   -31.4380 na         1 3HQ       0.210000
     14 C14          3.8450   -28.1040   -31.8960 cd         1 3HQ      -0.159000
     15 C15          3.0620   -30.1410   -30.9470 ca         1 3HQ       0.023800
     16 C16          2.2980   -29.6700   -29.8630 ca         1 3HQ      -0.106000
     17 C17          1.2260   -30.4330   -29.3750 ca         1 3HQ      -0.099000
     18 C18          0.9130   -31.6700   -29.9620 ca         1 3HQ      -0.064000
     19 C19          1.6690   -32.1680   -31.0490 ca         1 3HQ      -0.141600
     20 C20          2.7500   -31.3850   -31.5330 ca         1 3HQ      -0.085000
     21 C21          1.3030   -33.5120   -31.6570 c          1 3HQ       0.621700
     22 O22          0.3610   -34.1670   -31.2220 o          1 3HQ      -0.570100
     23 N23          2.0950   -33.9350   -32.7170 ns         1 3HQ      -0.145000
     24 C24          2.0670   -35.1040   -33.5260 ca         1 3HQ       0.020000
     25 C25          1.1320   -36.1480   -33.3870 ca         1 3HQ      -0.193000
     26 C26          1.2020   -37.2540   -34.2480 ca         1 3HQ       0.361900
     27 N27          2.1340   -37.3770   -35.2190 nb         1 3HQ      -0.691000
     28 C28          3.0350   -36.3810   -35.3550 ca         1 3HQ       0.375300
     29 C29          4.0620   -36.5510   -36.4580 c3         1 3HQ      -0.143400
     30 C30          3.0320   -35.2390   -34.5370 ca         1 3HQ      -0.223000
     31 C31          7.0850   -22.8970   -34.1900 ca         1 3HQ      -0.140500
     32 C32          8.3460   -22.7090   -34.7820 ca         1 3HQ      -0.088000
     33 H1          10.1910   -23.1140   -37.1940 hc         1 3HQ       0.045367
     34 H2          10.9180   -22.8460   -35.6000 hc         1 3HQ       0.045367
     35 H3          10.8440   -24.4790   -36.2720 hc         1 3HQ       0.045367
     36 H4           8.6760   -25.7450   -36.3160 ha         1 3HQ       0.117000
     37 H5           6.4510   -26.0720   -35.3010 ha         1 3HQ       0.123500
     38 H6           4.5420   -23.4370   -33.7870 hn         1 3HQ       0.171000
     39 H7           6.3060   -26.2590   -33.2080 hn         1 3HQ       0.333500
     40 H8           7.0220   -28.7400   -32.3910 h4         1 3HQ       0.041100
     41 H9           2.8630   -27.6480   -31.8610 h4         1 3HQ       0.187000
     42 H10          2.5360   -28.7160   -29.3970 ha         1 3HQ       0.131000
     43 H11          0.6360   -30.0660   -28.5370 ha         1 3HQ       0.127000
     44 H12          0.0770   -32.2420   -29.5640 ha         1 3HQ       0.141000
     45 H13          3.3620   -31.7230   -32.3650 ha         1 3HQ       0.142000
     46 H14          2.8350   -33.2930   -32.9640 hn         1 3HQ       0.160000
     47 H15          0.3500   -36.1320   -32.6370 ha         1 3HQ       0.155000
     48 H16          0.4870   -38.0710   -34.1580 h4         1 3HQ       0.020100
     49 H17          3.6680   -36.1860   -37.4130 hc         1 3HQ       0.051367
     50 H18          4.9780   -35.9910   -36.2370 hc         1 3HQ       0.051367
     51 H19          4.3420   -37.6030   -36.5870 hc         1 3HQ       0.051367
     52 H20          3.7790   -34.4640   -34.6920 ha         1 3HQ       0.119000
     53 H21          6.6420   -22.0920   -33.6070 ha         1 3HQ       0.123500
     54 H22          8.8650   -21.7620   -34.6520 ha         1 3HQ       0.117000
@<TRIPOS>BOND
     1     1     2 1   
     2     1    33 1   
     3     1    34 1   
     4     1    35 1   
     5     2     3 ar  
     6     2    32 ar  
     7     3     4 ar  
     8     3    36 1   
     9     4     5 ar  
    10     4    37 1   
    11     5     6 1   
    12     5    31 ar  
    13     6     7 1   
    14     6    38 1   
    15     7     8 2   
    16     7     9 1   
    17     9    10 1   
    18     9    39 1   
    19    10    11 1   
    20    10    14 2   
    21    11    12 2   
    22    11    40 1   
    23    12    13 1   
    24    13    14 1   
    25    13    15 1   
    26    14    41 1   
    27    15    16 ar  
    28    15    20 ar  
    29    16    17 ar  
    30    16    42 1   
    31    17    18 ar  
    32    17    43 1   
    33    18    19 ar  
    34    18    44 1   
    35    19    20 ar  
    36    19    21 1   
    37    20    45 1   
    38    21    22 2   
    39    21    23 1   
    40    23    24 1   
    41    23    46 1   
    42    24    25 ar  
    43    24    30 ar  
    44    25    26 ar  
    45    25    47 1   
    46    26    27 ar  
    47    26    48 1   
    48    27    28 ar  
    49    28    29 1   
    50    28    30 ar  
    51    29    49 1   
    52    29    50 1   
    53    29    51 1   
    54    30    52 1   
    55    31    32 ar  
    56    31    53 1   
    57    32    54 1   
@<TRIPOS>SUBSTRUCTURE
     1 3HQ         1 TEMP              0 ****  ****    0 ROOT
