@<TRIPOS>MOLECULE
3HR
   14    13     1     0     0
SMALL
abcg2


@<TRIPOS>ATOM
      1 C1          -1.3230     0.0510    -0.0470 c          1 3HR       0.724000
      2 O1          -1.4880    -0.6260    -1.0830 o          1 3HR      -0.738500
      3 C2          -0.0040     0.8370     0.0520 c3         1 3HR      -0.236400
      4 O2           1.3150    -1.1340     0.5780 oh         1 3HR      -0.657000
      5 C3           1.2250    -0.0000    -0.2720 c3         1 3HR       0.178300
      6 O3          -2.1330     0.1690     0.8940 o          1 3HR      -0.738500
      7 C4           2.5030     0.8260    -0.2220 c3         1 3HR      -0.125100
      8 H2          -0.0460     1.6730    -0.6550 hc         1 3HR       0.017700
      9 H2A          0.1070     1.2830     1.0470 hc         1 3HR       0.017700
     10 HO2          1.3680    -0.8160     1.4860 ho         1 3HR       0.420000
     11 H3           1.1090    -0.4080    -1.2790 h1         1 3HR       0.081700
     12 H4           2.6490     1.2670     0.7680 hc         1 3HR       0.018700
     13 H4A          3.3780     0.2160    -0.4520 hc         1 3HR       0.018700
     14 H4B          2.4680     1.6440    -0.9430 hc         1 3HR       0.018700
@<TRIPOS>BOND
     1     1     2 1   
     2     1     3 1   
     3     1     6 1   
     4     3     5 1   
     5     3     8 1   
     6     3     9 1   
     7     4     5 1   
     8     4    10 1   
     9     5     7 1   
    10     5    11 1   
    11     7    12 1   
    12     7    13 1   
    13     7    14 1   
@<TRIPOS>SUBSTRUCTURE
     1 3HR         1 TEMP              0 ****  ****    0 ROOT
