@<TRIPOS>MOLECULE
3HR
   14    13     1     0     0
SMALL
No Charge or Current Charge


@<TRIPOS>ATOM
      1 C1          -1.2310     0.0540    -0.0150 c          1 3HR       0.724000
      2 O1          -1.7790    -0.1370    -1.0890 o          1 3HR      -0.738500
      3 C2           0.0280     0.9240     0.0140 c3         1 3HR      -0.236400
      4 O2           1.3610    -0.8440     0.9660 oh         1 3HR      -0.657000
      5 C3           1.2670     0.0240    -0.1640 c3         1 3HR       0.178300
      6 O3          -1.5590    -0.4950     1.0260 o          1 3HR      -0.738500
      7 C4           2.5760     0.8310    -0.2830 c3         1 3HR      -0.125100
      8 H2           0.0270     1.6290    -0.8270 hc         1 3HR       0.017700
      9 H2A          0.1420     1.4110     0.9910 hc         1 3HR       0.017700
     10 HO2          0.4360    -0.9510     1.2910 ho         1 3HR       0.420000
     11 H3           1.1410    -0.5630    -1.0870 h1         1 3HR       0.081700
     12 H4           2.7450     1.4420     0.6120 hc         1 3HR       0.018700
     13 H4A          3.4340     0.1590    -0.4100 hc         1 3HR       0.018700
     14 H4B          2.5390     1.4980    -1.1520 hc         1 3HR       0.018700
@<TRIPOS>BOND
     1     1     2 1   
     2     1     3 1   
     3     1     6 1   
     4     3     5 1   
     5     3     8 1   
     6     3     9 1   
     7     4     5 1   
     8     4    10 1   
     9     5     7 1   
    10     5    11 1   
    11     7    12 1   
    12     7    13 1   
    13     7    14 1   
@<TRIPOS>SUBSTRUCTURE
     1 3HR         1 TEMP              0 ****  ****    0 ROOT
