@<TRIPOS>MOLECULE
3HS
   57    61     1     0     0
SMALL
No Charge or Current Charge


@<TRIPOS>ATOM
      1 C10         -6.1360    -2.7630    -0.8020 ca         1 3HS       0.093000
      2 C13         -5.9330    -0.8500     0.6920 ca         1 3HS      -0.116000
      3 C15         -3.1230     0.9790     1.0520 ca         1 3HS       0.008000
      4 C17         -1.6270    -0.9680     1.0460 ca         1 3HS      -0.101500
      5 C21          2.7950    -1.3050     2.2020 c          1 3HS       0.626700
      6 C22          3.9220    -0.7520     1.3520 ca         1 3HS      -0.176600
      7 C24          4.8180     1.0630    -0.0420 ca         1 3HS      -0.125000
      8 C26          7.1120     0.9020    -1.0610 cc         1 3HS       0.093500
      9 C28          8.3520     2.1770    -2.3920 cd         1 3HS      -0.225000
     10 O01         -7.4410     5.0220    -0.3760 o          1 3HS      -0.704000
     11 C03         -5.7950     3.3870     0.1290 cc         1 3HS       0.210500
     12 N04         -6.3460     2.3350    -0.4670 nd         1 3HS      -0.486800
     13 N05         -5.4110     1.3480    -0.2190 na         1 3HS       0.182000
     14 C06         -5.6440    -0.0140    -0.4070 ca         1 3HS       0.068800
     15 C07         -5.6230    -0.5570    -1.7060 ca         1 3HS      -0.090000
     16 C08         -5.8640    -1.9270    -1.9050 ca         1 3HS       0.124000
     17 Cl1         -5.8170    -2.5720    -3.5470 cl         1 3HS      -0.191000
     18 Cl2         -6.4400    -4.4880    -1.0160 cl         1 3HS      -0.202000
     19 C12         -6.1730    -2.2210     0.4940 ca         1 3HS      -0.093000
     20 C14         -4.2870     1.7490     0.5340 cd         1 3HS      -0.159000
     21 C16         -2.7350    -0.2770     0.5270 ca         1 3HS      -0.104500
     22 C18         -0.8730    -0.4200     2.0960 ca         1 3HS      -0.124300
     23 C19          0.3300    -1.1650     2.6520 c3         1 3HS       0.148300
     24 N20          1.5450    -0.8000     1.9300 ns         1 3HS      -0.503900
     25 C23          3.7870     0.5190     0.7410 ca         1 3HS      -0.083000
     26 C25          6.0190     0.3550    -0.2450 ca         1 3HS      -0.044500
     27 C27          7.0900     2.0750    -1.7670 cd         1 3HS      -0.157000
     28 C29          9.0790     1.0610    -2.0380 cc         1 3HS       0.138500
     29 C30         10.4810     0.7270    -2.4620 c          1 3HS       0.628500
     30 O31         11.0800     1.5000    -3.1990 o          1 3HS      -0.695000
     31 O32         10.9910    -0.3120    -2.0590 o          1 3HS      -0.695000
     32 O33          8.3170     0.2560    -1.2090 os         1 3HS      -0.205000
     33 C34          6.1580    -0.9090     0.3580 ca         1 3HS      -0.106000
     34 C35          5.1340    -1.4620     1.1460 ca         1 3HS       0.163000
     35 Cl3          5.4250    -3.0810     1.7900 cl         1 3HS      -0.206000
     36 O37          2.9580    -2.1020     3.1150 o          1 3HS      -0.597100
     37 C38         -1.2320     0.8360     2.6120 ca         1 3HS      -0.101500
     38 C39         -2.3400     1.5280     2.0920 ca         1 3HS      -0.104500
     39 C40         -4.5720     3.0660     0.7660 cc         1 3HS      -0.146000
     40 O41         -5.7600     5.6680     0.7780 o          1 3HS      -0.704000
     41 H131        -5.9630    -0.4340     1.6970 ha         1 3HS       0.139000
     42 H171        -1.3490    -1.9300     0.6200 ha         1 3HS       0.113000
     43 H241         4.6720     2.0450    -0.4830 ha         1 3HS       0.121000
     44 H281         8.6940     2.9810    -3.0350 ha         1 3HS       0.140000
     45 H071        -5.4150     0.0830    -2.5590 ha         1 3HS       0.162000
     46 H121        -6.3870    -2.8630     1.3450 ha         1 3HS       0.124000
     47 H161        -3.2570    -0.7230    -0.3100 ha         1 3HS       0.122500
     48 H191         0.4590    -0.9250     3.7160 h1         1 3HS       0.057200
     49 H192         0.1720    -2.2480     2.5630 h1         1 3HS       0.057200
     50 H201         1.4670    -0.1540     1.1570 hn         1 3HS       0.319500
     51 H231         2.8900     1.1170     0.8850 ha         1 3HS       0.116000
     52 H271         6.2760     2.7880    -1.8400 ha         1 3HS       0.117000
     53 H341         7.0690    -1.4820     0.2120 ha         1 3HS       0.157000
     54 H381        -0.6530     1.2810     3.4190 ha         1 3HS       0.113000
     55 H391        -2.5950     2.4910     2.5240 ha         1 3HS       0.122500
     56 H401        -3.9740     3.7810     1.3200 ha         1 3HS       0.154000
     57 C02         -6.3720     4.7900     0.1800 c          1 3HS       0.628500
@<TRIPOS>BOND
     1     1    16 ar  
     2     1    18 1   
     3     1    19 ar  
     4     2    14 ar  
     5     2    19 ar  
     6     2    41 1   
     7     3    20 1   
     8     3    21 ar  
     9     3    38 ar  
    10     4    21 ar  
    11     4    22 ar  
    12     4    42 1   
    13     5     6 1   
    14     5    24 1   
    15     5    36 2   
    16     6    25 ar  
    17     6    34 ar  
    18     7    25 ar  
    19     7    26 ar  
    20     7    43 1   
    21     8    26 1   
    22     8    27 2   
    23     8    32 1   
    24     9    27 1   
    25     9    28 2   
    26     9    44 1   
    27    10    57 1   
    28    11    12 2   
    29    11    39 1   
    30    11    57 1   
    31    12    13 1   
    32    13    14 1   
    33    13    20 1   
    34    14    15 ar  
    35    15    16 ar  
    36    15    45 1   
    37    16    17 1   
    38    19    46 1   
    39    20    39 2   
    40    21    47 1   
    41    22    23 1   
    42    22    37 ar  
    43    23    24 1   
    44    23    48 1   
    45    23    49 1   
    46    24    50 1   
    47    25    51 1   
    48    26    33 ar  
    49    27    52 1   
    50    28    29 1   
    51    28    32 1   
    52    29    30 1   
    53    29    31 1   
    54    33    34 ar  
    55    33    53 1   
    56    34    35 1   
    57    37    38 ar  
    58    37    54 1   
    59    38    55 1   
    60    39    56 1   
    61    40    57 1   
@<TRIPOS>SUBSTRUCTURE
     1 3HS         1 TEMP              0 ****  ****    0 ROOT
