@<TRIPOS>MOLECULE
3HS
   57    61     1     0     0
SMALL
bcc


@<TRIPOS>ATOM
      1 C10         -7.1570    -2.4090     0.7790 ca         1 3HS       0.001400
      2 C13         -5.5590    -0.7520     1.4690 ca         1 3HS      -0.134000
      3 C15         -2.8810     0.6340     0.4850 ca         1 3HS       0.008000
      4 C17         -1.7650    -1.4490     0.0000 ca         1 3HS      -0.119500
      5 C21          2.6050    -1.1970     1.6390 c          1 3HS       0.693700
      6 C22          3.8020    -0.5690     0.9950 ca         1 3HS      -0.176600
      7 C24          4.7390     1.2070    -0.3550 ca         1 3HS      -0.143000
      8 C26          7.1740     1.4010    -0.7190 cc         1 3HS       0.203200
      9 C28          8.6760     2.6800    -1.7460 cd         1 3HS      -0.308300
     10 O01         -6.9190     4.9140    -0.6740 o          1 3HS      -0.809300
     11 C03         -5.2190     3.3610    -0.1970 cc         1 3HS       0.275800
     12 N04         -6.0440     2.3340    -0.1260 nd         1 3HS      -0.486800
     13 N05         -5.2820     1.2740     0.1530 na         1 3HS       0.131300
     14 C06         -5.9020     0.0290     0.3730 ca         1 3HS       0.068800
     15 C07         -6.8780    -0.3990    -0.5150 ca         1 3HS      -0.108000
     16 C08         -7.5080    -1.6140    -0.3070 ca         1 3HS       0.032400
     17 CL1         -8.7180    -2.1310    -1.4150 cl         1 3HS      -0.099400
     18 CL2         -7.9260    -3.9250     1.0450 cl         1 3HS      -0.110400
     19 C12         -6.1810    -1.9720     1.6610 ca         1 3HS      -0.111000
     20 C14         -3.9600     1.5970     0.2590 cd         1 3HS      -0.108300
     21 C16         -2.8110    -0.5670    -0.2190 ca         1 3HS      -0.122500
     22 C18         -0.7650    -1.1570     0.9190 ca         1 3HS      -0.124300
     23 C19          0.3700    -2.1190     1.1560 c3         1 3HS       0.148300
     24 N20          1.6490    -1.5620     0.7710 ns         1 3HS      -0.570900
     25 C23          3.6480     0.5620     0.1950 ca         1 3HS      -0.101000
     26 C25          6.0310     0.7260    -0.1340 ca         1 3HS      -0.044500
     27 C27          7.2930     2.5320    -1.4740 cd         1 3HS      -0.240300
     28 C29          9.3080     1.6370    -1.1410 cc         1 3HS       0.248200
     29 C30         10.7560     1.2460    -1.0690 c          1 3HS       0.839100
     30 O31         11.5290     2.0030    -1.6840 o          1 3HS      -0.800300
     31 O32         11.0270     0.2250    -0.4150 o          1 3HS      -0.800300
     32 O33          8.3920     0.8630    -0.5190 os         1 3HS      -0.293800
     33 C34          6.1950    -0.4160     0.6530 ca         1 3HS      -0.124000
     34 C35          5.0930    -1.0370     1.2110 ca         1 3HS       0.071400
     35 CL3          5.3570    -2.4650     2.1550 cl         1 3HS      -0.114400
     36 O37          2.5290    -1.3320     2.8490 o          1 3HS      -0.597100
     37 C38         -0.8270     0.0500     1.6130 ca         1 3HS      -0.119500
     38 C39         -1.8710     0.9330     1.4010 ca         1 3HS      -0.122500
     39 C40         -3.8930     2.9510     0.0430 cc         1 3HS      -0.229300
     40 O41         -4.8060     5.6280    -0.5260 o          1 3HS      -0.809300
     41 H131        -4.8200    -0.4140     2.1820 ha         1 3HS       0.157000
     42 H171        -1.7250    -2.3750    -0.5610 ha         1 3HS       0.131000
     43 H241         4.5780     2.0890    -0.9610 ha         1 3HS       0.139000
     44 H281         9.1460     3.4640    -2.3160 ha         1 3HS       0.158000
     45 H071        -7.1480     0.2110    -1.3670 ha         1 3HS       0.180000
     46 H121        -5.9150    -2.5820     2.5130 ha         1 3HS       0.142000
     47 H161        -3.5640    -0.8120    -0.9570 ha         1 3HS       0.140500
     48 H191         0.4230    -2.3930     2.2090 h1         1 3HS       0.057200
     49 H192         0.2030    -3.0380     0.5930 h1         1 3HS       0.057200
     50 H201         1.8220    -1.4440    -0.2140 hn         1 3HS       0.319500
     51 H231         2.6560     0.9570     0.0150 ha         1 3HS       0.134000
     52 H271         6.4950     3.1830    -1.7930 ha         1 3HS       0.135000
     53 H341         7.1790    -0.8260     0.8340 ha         1 3HS       0.175000
     54 H381        -0.0610     0.2960     2.3390 ha         1 3HS       0.131000
     55 H391        -1.9150     1.8570     1.9650 ha         1 3HS       0.140500
     56 H401        -3.0030     3.5580     0.0210 ha         1 3HS       0.172000
     57 C02         -5.6990     4.7610    -0.4940 c          1 3HS       0.839100
@<TRIPOS>BOND
     1     1    16 ar  
     2     1    18 1   
     3     1    19 ar  
     4     2    14 ar  
     5     2    19 ar  
     6     2    41 1   
     7     3    20 1   
     8     3    21 ar  
     9     3    38 ar  
    10     4    21 ar  
    11     4    22 ar  
    12     4    42 1   
    13     5     6 1   
    14     5    24 1   
    15     5    36 2   
    16     6    25 ar  
    17     6    34 ar  
    18     7    25 ar  
    19     7    26 ar  
    20     7    43 1   
    21     8    26 1   
    22     8    27 2   
    23     8    32 1   
    24     9    27 1   
    25     9    28 2   
    26     9    44 1   
    27    10    57 1   
    28    11    12 2   
    29    11    39 1   
    30    11    57 1   
    31    12    13 1   
    32    13    14 1   
    33    13    20 1   
    34    14    15 ar  
    35    15    16 ar  
    36    15    45 1   
    37    16    17 1   
    38    19    46 1   
    39    20    39 2   
    40    21    47 1   
    41    22    23 1   
    42    22    37 ar  
    43    23    24 1   
    44    23    48 1   
    45    23    49 1   
    46    24    50 1   
    47    25    51 1   
    48    26    33 ar  
    49    27    52 1   
    50    28    29 1   
    51    28    32 1   
    52    29    30 1   
    53    29    31 1   
    54    33    34 ar  
    55    33    53 1   
    56    34    35 1   
    57    37    38 ar  
    58    37    54 1   
    59    38    55 1   
    60    39    56 1   
    61    40    57 1   
@<TRIPOS>SUBSTRUCTURE
     1 3HS         1 TEMP              0 ****  ****    0 ROOT
