@<TRIPOS>MOLECULE
3HT
   35    38     1     0     0
SMALL
No Charge or Current Charge


@<TRIPOS>ATOM
      1 C4          -4.5240     0.4980    -1.1180 ca         1 3HT      -0.164000
      2 C5          -3.6380    -0.5860    -0.9860 ca         1 3HT      -0.067000
      3 C6          -2.7070    -0.6120     0.0710 ca         1 3HT      -0.053200
      4 C7          -2.6740     0.4520     0.9920 ca         1 3HT      -0.067000
      5 C8          -3.5600     1.5360     0.8590 ca         1 3HT      -0.164000
      6 C10         -2.2250    -3.0200     0.2150 cc         1 3HT       0.442700
      7 C13          1.3040    -3.2490     0.0740 ca         1 3HT      -0.057000
      8 C15          1.8040    -0.8320     0.0050 ca         1 3HT      -0.129900
      9 C17         -0.4690    -1.6350     0.1380 ca         1 3HT      -0.093200
     10 C21          4.7560     1.1980    -0.1840 cs         1 3HT       0.465500
     11 S22          6.3950     1.5110    -0.2730 s          1 3HT      -0.484400
     12 N20          3.7450     2.0930    -0.1490 ns         1 3HT      -0.303400
     13 N19          2.5180     1.5700    -0.0770 nc         1 3HT      -0.495300
     14 O32          4.1340    -0.0180    -0.1290 os         1 3HT      -0.326700
     15 C18          2.7810     0.2730    -0.0660 cd         1 3HT       0.572200
     16 C14          2.2360    -2.1890     0.0100 ca         1 3HT      -0.092000
     17 C16          0.4160    -0.5510     0.0690 ca         1 3HT      -0.050000
     18 C12         -0.0600    -2.9390     0.1350 ca         1 3HT       0.096400
     19 N11         -1.1380    -3.8280     0.1880 nd         1 3HT      -0.573100
     20 N9          -1.8260    -1.6830     0.2100 na         1 3HT      -0.077400
     21 C3          -4.4910     1.5610    -0.2020 ca         1 3HT       0.154100
     22 O2          -5.3850     2.5970    -0.3850 os         1 3HT      -0.335100
     23 C1          -5.4340     3.7330     0.4970 c3         1 3HT       0.145900
     24 H4          -5.2390     0.5160    -1.9370 ha         1 3HT       0.132000
     25 H5          -3.6730    -1.3980    -1.7100 ha         1 3HT       0.129500
     26 H7          -1.9620     0.4380     1.8150 ha         1 3HT       0.129500
     27 H8          -3.5100     2.3420     1.5860 ha         1 3HT       0.132000
     28 H10         -3.2650    -3.3250     0.2340 h5         1 3HT       0.069800
     29 H13          1.6360    -4.2840     0.0710 ha         1 3HT       0.139000
     30 HN20         3.9260     3.1020    -0.1780 hn         1 3HT       0.509000
     31 H14          3.2970    -2.4280    -0.0390 ha         1 3HT       0.136000
     32 H16          0.0450     0.4720     0.0640 ha         1 3HT       0.142000
     33 H1          -6.2130     4.4340     0.1710 h1         1 3HT       0.045367
     34 H1A         -5.6660     3.4220     1.5230 h1         1 3HT       0.045367
     35 H1B         -4.4750     4.2680     0.4980 h1         1 3HT       0.045367
@<TRIPOS>BOND
     1     1     2 ar  
     2     1    21 ar  
     3     1    24 1   
     4     2     3 ar  
     5     2    25 1   
     6     3     4 ar  
     7     3    20 1   
     8     4     5 ar  
     9     4    26 1   
    10     5    21 ar  
    11     5    27 1   
    12     6    19 2   
    13     6    20 1   
    14     6    28 1   
    15     7    16 ar  
    16     7    18 ar  
    17     7    29 1   
    18     8    15 1   
    19     8    16 ar  
    20     8    17 ar  
    21     9    17 ar  
    22     9    18 ar  
    23     9    20 1   
    24    10    11 2   
    25    10    12 1   
    26    10    14 1   
    27    12    13 1   
    28    12    30 1   
    29    13    15 2   
    30    14    15 1   
    31    16    31 1   
    32    17    32 1   
    33    18    19 1   
    34    21    22 1   
    35    22    23 1   
    36    23    33 1   
    37    23    34 1   
    38    23    35 1   
@<TRIPOS>SUBSTRUCTURE
     1 3HT         1 TEMP              0 ****  ****    0 ROOT
