@<TRIPOS>MOLECULE
3HT
   35    38     1     0     0
SMALL
abcg2


@<TRIPOS>ATOM
      1 C4          -4.5540     0.5480    -1.1250 ca         1 3HT      -0.164000
      2 C5          -3.6590    -0.5000    -1.0490 ca         1 3HT      -0.067000
      3 C6          -2.7240    -0.5440    -0.0200 ca         1 3HT      -0.053200
      4 C7          -2.6820     0.4750     0.9170 ca         1 3HT      -0.067000
      5 C8          -3.5640     1.5430     0.8350 ca         1 3HT      -0.164000
      6 C10         -2.1490    -2.9470     0.1650 cc         1 3HT       0.442700
      7 C13          1.3300    -3.2140     0.2070 ca         1 3HT      -0.057000
      8 C15          1.7930    -0.8380     0.0090 ca         1 3HT      -0.129900
      9 C17         -0.4470    -1.5740     0.0760 ca         1 3HT      -0.093200
     10 C21          4.7340     1.1480    -0.1710 cs         1 3HT       0.465500
     11 S22          6.3690     1.3130    -0.1970 s          1 3HT      -0.484400
     12 N20          3.7590     2.0510    -0.2360 ns         1 3HT      -0.303400
     13 N19          2.5270     1.4990    -0.1820 nc         1 3HT      -0.495300
     14 O32          4.0810    -0.0320    -0.0720 os         1 3HT      -0.326700
     15 C18          2.7570     0.2410    -0.0840 cd         1 3HT       0.572200
     16 C14          2.2300    -2.1720     0.1240 ca         1 3HT      -0.092000
     17 C16          0.4390    -0.5170    -0.0190 ca         1 3HT      -0.050000
     18 C12         -0.0310    -2.9130     0.1800 ca         1 3HT       0.096400
     19 N11         -1.1210    -3.7420     0.2320 nd         1 3HT      -0.573100
     20 N9          -1.8210    -1.6300     0.0700 na         1 3HT      -0.077400
     21 C3          -4.5130     1.5820    -0.1860 ca         1 3HT       0.154100
     22 O2          -5.4170     2.5620    -0.3420 os         1 3HT      -0.335100
     23 C1          -5.4330     3.6260     0.5900 c3         1 3HT       0.145900
     24 H4          -5.2850     0.5800    -1.9230 ha         1 3HT       0.132000
     25 H5          -3.6850    -1.2840    -1.7950 ha         1 3HT       0.129500
     26 H7          -1.9670     0.4420     1.7300 ha         1 3HT       0.129500
     27 H8          -3.5010     2.3210     1.5820 ha         1 3HT       0.132000
     28 H10         -3.1830    -3.2600     0.1900 h5         1 3HT       0.069800
     29 H13          1.6720    -4.2370     0.2890 ha         1 3HT       0.139000
     30 HN20         3.8760     3.0500    -0.3130 hn         1 3HT       0.509000
     31 H14          3.2880    -2.3940     0.1470 ha         1 3HT       0.136000
     32 H16          0.1050     0.5070    -0.1130 ha         1 3HT       0.142000
     33 H1          -6.2400     4.2890     0.2870 h1         1 3HT       0.045367
     34 H1A         -5.6290     3.2740     1.6060 h1         1 3HT       0.045367
     35 H1B         -4.4960     4.1880     0.5840 h1         1 3HT       0.045367
@<TRIPOS>BOND
     1     1     2 ar  
     2     1    21 ar  
     3     1    24 1   
     4     2     3 ar  
     5     2    25 1   
     6     3     4 ar  
     7     3    20 1   
     8     4     5 ar  
     9     4    26 1   
    10     5    21 ar  
    11     5    27 1   
    12     6    19 2   
    13     6    20 1   
    14     6    28 1   
    15     7    16 ar  
    16     7    18 ar  
    17     7    29 1   
    18     8    15 1   
    19     8    16 ar  
    20     8    17 ar  
    21     9    17 ar  
    22     9    18 ar  
    23     9    20 1   
    24    10    11 2   
    25    10    12 1   
    26    10    14 1   
    27    12    13 1   
    28    12    30 1   
    29    13    15 2   
    30    14    15 1   
    31    16    31 1   
    32    17    32 1   
    33    18    19 1   
    34    21    22 1   
    35    22    23 1   
    36    23    33 1   
    37    23    34 1   
    38    23    35 1   
@<TRIPOS>SUBSTRUCTURE
     1 3HT         1 TEMP              0 ****  ****    0 ROOT
