@<TRIPOS>MOLECULE
3HU
   37    39     1     0     0
SMALL
No Charge or Current Charge


@<TRIPOS>ATOM
      1 C           -4.2810     3.0830    -0.1880 c          1 3HU       0.724000
      2 N           -4.2780     0.9000     1.2810 n8         1 3HU      -0.995200
      3 OXT         -4.0200     4.2160     0.1960 o          1 3HU      -0.728000
      4 CA          -3.4800     1.8760     0.4390 c3         1 3HU       0.004500
      5 CB          -2.6740     1.1540    -0.6760 c3         1 3HU       0.080000
      6 OAB          4.3520     0.8980     2.2070 o          1 3HU      -0.719000
      7 OAF          6.1180     1.0880     1.0200 o          1 3HU      -0.719000
      8 CAH          3.5400    -0.3670    -2.3860 cc         1 3HU      -0.321000
      9 CAI          2.5140    -0.4270    -1.4810 cd         1 3HU      -0.119000
     10 CAJ         -1.6800    -3.4490     0.3860 cc         1 3HU      -0.184000
     11 CAK         -3.3320    -1.7480    -0.4370 cc         1 3HU      -0.329000
     12 SAN         -3.3470    -3.4880    -0.1770 ss         1 3HU       0.186000
     13 SAO          5.0160     0.1950    -1.6250 ss         1 3HU       0.191000
     14 CAP          4.9350     0.8060     1.1370 c          1 3HU       0.734600
     15 CAR          2.8610    -0.0300    -0.1510 cd         1 3HU      -0.128300
     16 CAS          4.1990     0.3380    -0.0710 cc         1 3HU      -0.211600
     17 CAT          0.1930    -1.8240     0.7660 c          1 3HU       0.606600
     18 CAU         -0.4170     0.5140     0.1860 c          1 3HU       0.612000
     19 CAV         -1.1790    -2.1670     0.3600 cd         1 3HU      -0.213600
     20 CAW         -2.1130    -1.2190    -0.0990 cd         1 3HU       0.103600
     21 NAY          0.4910    -0.4610     0.6470 n          1 3HU      -0.374400
     22 NAZ         -1.7330     0.1140    -0.1690 n          1 3HU      -0.292000
     23 O           -5.1720     2.8370    -0.9920 o          1 3HU      -0.728000
     24 HN          -5.0910     0.5860     0.7380 hn         1 3HU       0.379500
     25 HNA         -3.7220     0.0440     1.3960 hn         1 3HU       0.379500
     26 HA          -2.7350     2.3310     1.1060 h1         1 3HU       0.072700
     27 HB          -3.3710     0.6990    -1.3910 h1         1 3HU       0.065200
     28 HBA         -2.1130     1.9040    -1.2480 h1         1 3HU       0.065200
     29 HAH          3.5380    -0.6110    -3.4400 h4         1 3HU       0.114000
     30 HAI          1.5190    -0.7530    -1.7670 ha         1 3HU       0.106000
     31 HAJ         -1.1970    -4.3700     0.6880 h4         1 3HU       0.156000
     32 HAK         -4.2210    -1.2640    -0.8180 h4         1 3HU       0.168000
     33 HAL          2.2600    -0.6650     1.8010 h1         1 3HU       0.093200
     34 HALA         1.8320     0.9870     1.4270 h1         1 3HU       0.093200
     35 OAE         -0.0800     1.6880     0.1010 o          1 3HU      -0.512000
     36 CAL          1.8680    -0.0240     1.0010 c3         1 3HU       0.177300
     37 OAD          0.9970    -2.6570     1.1670 o          1 3HU      -0.538000
@<TRIPOS>BOND
     1     1     3 1   
     2     1     4 1   
     3     1    23 1   
     4     2     4 1   
     5     2    24 1   
     6     2    25 1   
     7     4     5 1   
     8     4    26 1   
     9     5    22 1   
    10     5    27 1   
    11     5    28 1   
    12     6    14 1   
    13     7    14 1   
    14     8     9 2   
    15     8    13 1   
    16     8    29 1   
    17     9    15 1   
    18     9    30 1   
    19    10    12 1   
    20    10    19 2   
    21    10    31 1   
    22    11    12 1   
    23    11    20 2   
    24    11    32 1   
    25    13    16 1   
    26    14    16 1   
    27    15    16 2   
    28    15    36 1   
    29    17    19 1   
    30    17    21 1   
    31    17    37 2   
    32    18    21 1   
    33    18    22 1   
    34    18    35 2   
    35    19    20 1   
    36    20    22 1   
    37    21    36 1   
    38    33    36 1   
    39    34    36 1   
@<TRIPOS>SUBSTRUCTURE
     1 3HU         1 TEMP              0 ****  ****    0 ROOT
