@<TRIPOS>MOLECULE
3HU
   37    39     1     0     0
SMALL
bcc


@<TRIPOS>ATOM
      1 C           -4.2490     2.9410    -0.1790 c          1 3HU       0.934600
      2 N           -4.0410     1.0350     1.3860 n8         1 3HU      -0.884800
      3 OXT         -3.6760     3.8910    -0.7490 o          1 3HU      -0.833300
      4 CA          -3.3140     1.8930     0.4740 c3         1 3HU       0.004500
      5 CB          -2.5940     1.1670    -0.6730 c3         1 3HU       0.080000
      6 OAB          4.1870     1.0440     2.2480 o          1 3HU      -0.824300
      7 OAF          5.9860     1.2540     0.9320 o          1 3HU      -0.824300
      8 CAH          3.4920    -0.3750    -2.2790 cc         1 3HU      -0.194100
      9 CAI          2.4370    -0.4860    -1.4230 cd         1 3HU      -0.137000
     10 CAJ         -1.7080    -3.4620     0.2070 cc         1 3HU      -0.057100
     11 CAK         -3.2960    -1.7240    -0.5520 cc         1 3HU      -0.202100
     12 SAN         -3.3050    -3.4280    -0.3540 ss         1 3HU      -0.103800
     13 SAO          4.8700     0.2650    -1.5000 ss         1 3HU      -0.098800
     14 CAP          4.8020     0.9460     1.1670 c          1 3HU       0.945200
     15 CAR          2.7430    -0.0430    -0.1040 cd         1 3HU      -0.128300
     16 CAS          4.0380     0.3940     0.0000 cc         1 3HU      -0.066700
     17 CAT          0.1620    -1.8600     0.6850 c          1 3HU       0.749100
     18 CAU         -0.4270     0.4900     0.1780 c          1 3HU       0.821500
     19 CAV         -1.1800    -2.2020     0.2540 cd         1 3HU      -0.213600
     20 CAW         -2.0880    -1.2020    -0.1840 cd         1 3HU       0.103600
     21 NAY          0.4400    -0.5060     0.6380 n          1 3HU      -0.508400
     22 NAZ         -1.6840     0.1190    -0.2130 n          1 3HU      -0.359000
     23 O           -5.4730     2.7300    -0.1200 o          1 3HU      -0.833300
     24 HN          -4.8580     0.6580     0.9230 hn         1 3HU       0.324300
     25 HNA         -3.4740     0.2550     1.6920 hn         1 3HU       0.324300
     26 HA          -2.5540     2.4310     1.0480 h1         1 3HU       0.072700
     27 HB          -3.3170     0.6970    -1.3400 h1         1 3HU       0.065200
     28 HBA         -2.0300     1.8770    -1.2730 h1         1 3HU       0.065200
     29 HAH          3.5150    -0.6380    -3.3260 h4         1 3HU       0.132000
     30 HAI          1.4760    -0.8690    -1.7370 ha         1 3HU       0.124000
     31 HAJ         -1.2280    -4.3890     0.4800 h4         1 3HU       0.174000
     32 HAK         -4.1770    -1.2260    -0.9200 h4         1 3HU       0.186000
     33 HAL          2.1240    -0.7490     1.8190 h1         1 3HU       0.093200
     34 HALA         1.6960     0.9070     1.5090 h1         1 3HU       0.093200
     35 OAE         -0.0580     1.6450     0.1280 o          1 3HU      -0.587500
     36 CAL          1.7730    -0.0710     1.0450 c3         1 3HU       0.177300
     37 OAD          0.9860    -2.6740     1.0500 o          1 3HU      -0.613500
@<TRIPOS>BOND
     1     1     3 1   
     2     1     4 1   
     3     1    23 1   
     4     2     4 1   
     5     2    24 1   
     6     2    25 1   
     7     4     5 1   
     8     4    26 1   
     9     5    22 1   
    10     5    27 1   
    11     5    28 1   
    12     6    14 1   
    13     7    14 1   
    14     8     9 2   
    15     8    13 1   
    16     8    29 1   
    17     9    15 1   
    18     9    30 1   
    19    10    12 1   
    20    10    19 2   
    21    10    31 1   
    22    11    12 1   
    23    11    20 2   
    24    11    32 1   
    25    13    16 1   
    26    14    16 1   
    27    15    16 2   
    28    15    36 1   
    29    17    19 1   
    30    17    21 1   
    31    17    37 2   
    32    18    21 1   
    33    18    22 1   
    34    18    35 2   
    35    19    20 1   
    36    20    22 1   
    37    21    36 1   
    38    33    36 1   
    39    34    36 1   
@<TRIPOS>SUBSTRUCTURE
     1 3HU         1 TEMP              0 ****  ****    0 ROOT
