@<TRIPOS>MOLECULE
3HV
   61    66     1     0     0
SMALL
No Charge or Current Charge


@<TRIPOS>ATOM
      1 C10         16.4900     9.7550    20.0450 cc         1 3HV       0.154500
      2 C15         14.8930    10.7770    24.3520 ca         1 3HV      -0.137000
      3 C17         11.9730    13.6480    22.9510 c6         1 3HV      -0.052100
      4 C21          8.9460    14.2650    25.7490 ca         1 3HV      -0.099300
      5 C22          8.1730    14.9000    24.7620 ca         1 3HV      -0.097000
      6 C24          8.4160    13.1450    26.4120 ca         1 3HV      -0.097000
      7 C26          6.3610    13.2760    25.0770 ca         1 3HV       0.007000
      8 C28          4.2880    11.8400    25.5040 cc         1 3HV      -0.157000
      9 C02         12.1890    13.0910    25.8310 cs         1 3HV       0.435000
     10 C03         13.1060    12.3840    24.8400 ca         1 3HV      -0.150600
     11 C04         13.0050    12.6450    23.4540 ca         1 3HV      -0.054300
     12 C05         13.8360    11.9770    22.5360 ca         1 3HV      -0.110000
     13 C06         14.7930    11.0390    22.9710 ca         1 3HV      -0.038500
     14 C07         15.6520    10.3600    21.9900 cc         1 3HV       0.098500
     15 C08         16.6750     9.4930    22.2710 cd         1 3HV      -0.153000
     16 C09         17.2100     9.1060    21.0230 cd         1 3HV      -0.224000
     17 C11         16.6950     9.6560    18.5580 c          1 3HV       0.619500
     18 O12         17.5850     8.9320    18.1280 o          1 3HV      -0.697000
     19 O13         15.9680    10.3010    17.8130 o          1 3HV      -0.697000
     20 O14         15.5150    10.5430    20.6340 os         1 3HV      -0.220000
     21 C16         14.0610    11.4370    25.2730 ca         1 3HV      -0.044000
     22 C18         11.7220    14.7300    24.0100 c6         1 3HV       0.089000
     23 N19         11.4050    14.1140    25.3150 n          1 3HV      -0.313800
     24 C23          6.8960    14.4150    24.4330 ca         1 3HV      -0.099500
     25 C25          7.1370    12.6630    26.0850 ca         1 3HV      -0.099500
     26 C27          5.0140    12.7290    24.7600 cd         1 3HV      -0.147000
     27 C29          3.0880    11.5440    24.8140 cc         1 3HV       0.216500
     28 C30          2.0470    10.6040    25.3960 c          1 3HV       0.623500
     29 O31          1.0250    10.3670    24.7590 o          1 3HV      -0.708500
     30 O32          2.2440    10.0970    26.4950 o          1 3HV      -0.708500
     31 N33          3.0170    12.1540    23.6360 nd         1 3HV      -0.480800
     32 N34          4.1940    12.8790    23.6220 na         1 3HV       0.172000
     33 C35          4.7370    13.4660    22.4790 ca         1 3HV       0.057800
     34 C36          5.8130    12.8550    21.8030 ca         1 3HV      -0.111000
     35 C37          6.3530    13.4500    20.6490 ca         1 3HV      -0.086000
     36 C38          5.8150    14.6510    20.1570 ca         1 3HV       0.103000
     37 Cl3          6.5160    15.3730    18.7080 cl         1 3HV      -0.196000
     38 C40          4.7270    15.2570    20.8220 ca         1 3HV       0.127000
     39 Cl4          4.0210    16.7620    20.2290 cl         1 3HV      -0.198000
     40 C42          4.1900    14.6620    21.9760 ca         1 3HV      -0.092000
     41 H151        15.6130    10.0570    24.7300 ha         1 3HV       0.116000
     42 H171        12.3070    14.1190    22.0160 hc         1 3HV       0.069200
     43 H202        10.5120    14.6650    27.1710 h1         1 3HV       0.063200
     44 H201        10.3770    15.8610    25.8980 h1         1 3HV       0.063200
     45 H221         8.5580    15.7790    24.2500 ha         1 3HV       0.107000
     46 H241         8.9980    12.6420    27.1810 ha         1 3HV       0.107000
     47 H051        13.7360    12.1920    21.4740 ha         1 3HV       0.143000
     48 H081        17.0160     9.1670    23.2470 ha         1 3HV       0.115000
     49 H091        18.0380     8.4240    20.8560 ha         1 3HV       0.139000
     50 H161        14.1740    11.2040    26.3290 ha         1 3HV       0.138000
     51 H181        12.6230    15.3500    24.1210 h1         1 3HV       0.051700
     52 H231         6.3250    14.9640    23.6940 ha         1 3HV       0.122000
     53 H251         6.7660    11.7880    26.6110 ha         1 3HV       0.122000
     54 H361         6.2330    11.9240    22.1790 ha         1 3HV       0.142000
     55 H371         7.1880    12.9800    20.1340 ha         1 3HV       0.135000
     56 H421         3.3510    15.1310    22.4840 ha         1 3HV       0.157000
     57 H3          11.0330    13.1260    22.7260 hc         1 3HV       0.069200
     58 H4          10.9030    15.3840    23.6790 h1         1 3HV       0.051700
     59 S01         12.0710    12.5370    27.4180 s          1 3HV      -0.638400
     60 C20         10.3370    14.7810    26.0950 c3         1 3HV       0.147300
     61 H281         4.5470    11.4300    26.4730 ha         1 3HV       0.148000
@<TRIPOS>BOND
     1     1    16 2   
     2     1    17 1   
     3     1    20 1   
     4     2    13 ar  
     5     2    21 ar  
     6     2    41 1   
     7     3    11 1   
     8     3    22 1   
     9     3    42 1   
    10     3    57 1   
    11     4     5 ar  
    12     4     6 ar  
    13     4    60 1   
    14     5    24 ar  
    15     5    45 1   
    16     6    25 ar  
    17     6    46 1   
    18     7    24 ar  
    19     7    25 ar  
    20     7    26 1   
    21     8    26 2   
    22     8    27 1   
    23     8    61 1   
    24     9    10 1   
    25     9    23 1   
    26     9    59 2   
    27    10    11 ar  
    28    10    21 ar  
    29    11    12 ar  
    30    12    13 ar  
    31    12    47 1   
    32    13    14 1   
    33    14    15 2   
    34    14    20 1   
    35    15    16 1   
    36    15    48 1   
    37    16    49 1   
    38    17    18 1   
    39    17    19 1   
    40    21    50 1   
    41    22    23 1   
    42    22    51 1   
    43    22    58 1   
    44    23    60 1   
    45    24    52 1   
    46    25    53 1   
    47    26    32 1   
    48    27    28 1   
    49    27    31 2   
    50    28    29 1   
    51    28    30 1   
    52    31    32 1   
    53    32    33 1   
    54    33    34 ar  
    55    33    40 ar  
    56    34    35 ar  
    57    34    54 1   
    58    35    36 ar  
    59    35    55 1   
    60    36    37 1   
    61    36    38 ar  
    62    38    39 1   
    63    38    40 ar  
    64    40    56 1   
    65    43    60 1   
    66    44    60 1   
@<TRIPOS>SUBSTRUCTURE
     1 3HV         1 TEMP              0 ****  ****    0 ROOT
