@<TRIPOS>MOLECULE
3HV
   61    66     1     0     0
SMALL
abcg2


@<TRIPOS>ATOM
      1 C10         16.8160    11.6600    19.4880 cc         1 3HV       0.154500
      2 C15         14.1800    10.4140    23.1580 ca         1 3HV      -0.137000
      3 C17         12.3800    14.2910    23.4620 c6         1 3HV      -0.052100
      4 C21          8.9450    13.7730    26.1490 ca         1 3HV      -0.099300
      5 C22          8.5560    14.0780    24.8470 ca         1 3HV      -0.097000
      6 C24          7.9650    13.4110    27.0710 ca         1 3HV      -0.097000
      7 C26          6.2430    13.6120    25.3850 ca         1 3HV       0.007000
      8 C28          3.7060    13.9810    25.6450 cc         1 3HV      -0.157000
      9 C02         11.5980    12.2040    25.2560 cs         1 3HV       0.435000
     10 C03         12.6370    11.9380    24.2350 ca         1 3HV      -0.150600
     11 C04         13.0220    12.9430    23.3330 ca         1 3HV      -0.054300
     12 C05         13.9600    12.6710    22.3480 ca         1 3HV      -0.110000
     13 C06         14.5550    11.4090    22.2410 ca         1 3HV      -0.038500
     14 C07         15.5430    11.1290    21.2200 cc         1 3HV       0.098500
     15 C08         16.2760    10.0120    20.9090 cd         1 3HV      -0.153000
     16 C09         17.0920    10.3580    19.7990 cd         1 3HV      -0.224000
     17 C11         17.3450    12.5800    18.4260 c          1 3HV       0.619500
     18 O12         18.2360    12.0890    17.6880 o          1 3HV      -0.697000
     19 O13         16.8590    13.7350    18.3710 o          1 3HV      -0.697000
     20 O14         15.8680    12.1330    20.3550 os         1 3HV      -0.220000
     21 C16         13.2360    10.6750    24.1280 ca         1 3HV      -0.044000
     22 C18         12.1100    14.5820    24.9240 c6         1 3HV       0.089000
     23 N19         11.3470    13.4870    25.5460 n          1 3HV      -0.313800
     24 C23          7.2240    14.0010    24.4670 ca         1 3HV      -0.099500
     25 C25          6.6310    13.3320    26.6980 ca         1 3HV      -0.099500
     26 C27          4.8320    13.5100    25.0030 cd         1 3HV      -0.147000
     27 C29          2.6170    13.6750    24.7990 cc         1 3HV       0.216500
     28 C30          1.1520    13.9890    25.0400 c          1 3HV       0.623500
     29 O31          0.3210    13.5860    24.1910 o          1 3HV      -0.708500
     30 O32          0.9060    14.6360    26.0900 o          1 3HV      -0.708500
     31 N33          3.0370    13.0450    23.7040 nd         1 3HV      -0.480800
     32 N34          4.3820    12.9440    23.8340 na         1 3HV       0.172000
     33 C35          5.1210    12.2340    22.8560 ca         1 3HV       0.057800
     34 C36          6.0510    11.2710    23.2330 ca         1 3HV      -0.111000
     35 C37          6.7710    10.5970    22.2610 ca         1 3HV      -0.086000
     36 C38          6.5540    10.8630    20.9130 ca         1 3HV       0.103000
     37 CL3          7.4710     9.9920    19.7220 cl         1 3HV      -0.196000
     38 C40          5.6050    11.8160    20.5420 ca         1 3HV       0.127000
     39 CL4          5.2980    12.1780    18.8700 cl         1 3HV      -0.198000
     40 C42          4.8940    12.5070    21.5130 ca         1 3HV      -0.092000
     41 H151        14.6330     9.4320    23.1080 ha         1 3HV       0.116000
     42 H171        13.0210    15.0680    23.0450 hc         1 3HV       0.069200
     43 H202        10.5410    13.2100    27.4510 h1         1 3HV       0.063200
     44 H201        10.6290    14.8770    26.8860 h1         1 3HV       0.063200
     45 H221         9.2960    14.3700    24.1130 ha         1 3HV       0.107000
     46 H241         8.2530    13.1610    28.0850 ha         1 3HV       0.107000
     47 H051        14.2410    13.4560    21.6580 ha         1 3HV       0.143000
     48 H081        16.2360     9.0620    21.4150 ha         1 3HV       0.115000
     49 H091        17.7980     9.7270    19.2870 ha         1 3HV       0.139000
     50 H161        12.9470     9.9020    24.8260 ha         1 3HV       0.138000
     51 H181        13.0500    14.7150    25.4700 h1         1 3HV       0.051700
     52 H231         6.9460    14.2450    23.4510 ha         1 3HV       0.122000
     53 H251         5.8860    13.0210    27.4190 ha         1 3HV       0.122000
     54 H361         6.2120    11.0460    24.2770 ha         1 3HV       0.142000
     55 H371         7.4990     9.8490    22.5420 ha         1 3HV       0.135000
     56 H421         4.1720    13.2570    21.2260 ha         1 3HV       0.157000
     57 H3          11.4390    14.3090    22.9020 hc         1 3HV       0.069200
     58 H4          11.5260    15.4920    25.0340 h1         1 3HV       0.051700
     59 S01         10.7620    10.9400    26.0030 s          1 3HV      -0.638400
     60 C20         10.3900    13.8560    26.5870 c3         1 3HV       0.147300
     61 H281         3.6760    14.5120    26.5800 ha         1 3HV       0.148000
@<TRIPOS>BOND
     1     1    16 2   
     2     1    17 1   
     3     1    20 1   
     4     2    13 ar  
     5     2    21 ar  
     6     2    41 1   
     7     3    11 1   
     8     3    22 1   
     9     3    42 1   
    10     3    57 1   
    11     4     5 ar  
    12     4     6 ar  
    13     4    60 1   
    14     5    24 ar  
    15     5    45 1   
    16     6    25 ar  
    17     6    46 1   
    18     7    24 ar  
    19     7    25 ar  
    20     7    26 1   
    21     8    26 2   
    22     8    27 1   
    23     8    61 1   
    24     9    10 1   
    25     9    23 1   
    26     9    59 2   
    27    10    11 ar  
    28    10    21 ar  
    29    11    12 ar  
    30    12    13 ar  
    31    12    47 1   
    32    13    14 1   
    33    14    15 2   
    34    14    20 1   
    35    15    16 1   
    36    15    48 1   
    37    16    49 1   
    38    17    18 1   
    39    17    19 1   
    40    21    50 1   
    41    22    23 1   
    42    22    51 1   
    43    22    58 1   
    44    23    60 1   
    45    24    52 1   
    46    25    53 1   
    47    26    32 1   
    48    27    28 1   
    49    27    31 2   
    50    28    29 1   
    51    28    30 1   
    52    31    32 1   
    53    32    33 1   
    54    33    34 ar  
    55    33    40 ar  
    56    34    35 ar  
    57    34    54 1   
    58    35    36 ar  
    59    35    55 1   
    60    36    37 1   
    61    36    38 ar  
    62    38    39 1   
    63    38    40 ar  
    64    40    56 1   
    65    43    60 1   
    66    44    60 1   
@<TRIPOS>SUBSTRUCTURE
     1 3HV         1 TEMP              0 ****  ****    0 ROOT
