@<TRIPOS>MOLECULE
3HW
   57    61     1     0     0
SMALL
bcc


@<TRIPOS>ATOM
      1 C10          4.6500    -2.4650    -2.1660 ca         1 3HW       0.003400
      2 C13          5.9730    -0.7300    -1.1560 ca         1 3HW      -0.111000
      3 C15          2.9580     1.2090     1.1610 ca         1 3HW       0.028000
      4 C17          2.0490    -0.6600     2.3870 ca         1 3HW      -0.094000
      5 C21         -2.7550    -1.1190     3.0250 c3         1 3HW       0.140300
      6 C22         -3.9080    -0.6890     2.1670 ca         1 3HW      -0.155300
      7 C24         -5.5440    -1.1670     0.4540 ca         1 3HW      -0.130500
      8 C26         -7.1690     0.5660    -0.2780 cc         1 3HW       0.209200
      9 C28         -8.8350     1.5600    -1.3710 cd         1 3HW      -0.307300
     10 O01          7.5740     4.3370    -1.0450 o          1 3HW      -0.809300
     11 C03          5.7030     3.2580    -0.1140 cc         1 3HW       0.273800
     12 N04          5.9070     2.1280    -0.7630 nd         1 3HW      -0.483800
     13 N05          4.9260     1.3070    -0.3850 na         1 3HW       0.136300
     14 C06          4.8280     0.0360    -0.9830 ca         1 3HW       0.064800
     15 C07          3.5970    -0.4350    -1.4150 ca         1 3HW      -0.135000
     16 C08          3.5090    -1.6910    -1.9920 ca         1 3HW       0.036400
     17 CL0          1.9710    -2.2640    -2.5080 cl         1 3HW      -0.089400
     18 CL1          4.5540    -4.0220    -2.8910 cl         1 3HW      -0.105400
     19 C12          5.8800    -1.9740    -1.7530 ca         1 3HW      -0.114000
     20 C14          4.0790     1.8910     0.5120 cd         1 3HW      -0.116300
     21 C16          3.1120    -0.0470     1.7510 ca         1 3HW      -0.128000
     22 C18          0.7990    -0.0450     2.4320 ca         1 3HW      -0.133600
     23 C19         -0.3390    -0.7160     3.1030 cs         1 3HW       0.476000
     24 N20         -1.5120    -0.5780     2.5070 ns         1 3HW      -0.448900
     25 C23         -4.4840    -1.5640     1.2550 ca         1 3HW      -0.112000
     26 C25         -6.0550     0.1290     0.5460 ca         1 3HW      -0.055500
     27 C27         -7.8280     1.7570    -0.3900 cd         1 3HW      -0.248300
     28 C29         -8.7260     0.2710    -1.7910 cc         1 3HW       0.248200
     29 C30         -9.4980    -0.5260    -2.8000 c          1 3HW       0.838100
     30 O31         -9.1510    -1.7080    -2.9630 o          1 3HW      -0.801300
     31 O32        -10.4140     0.0970    -3.3690 o          1 3HW      -0.801300
     32 O33         -7.7120    -0.3280    -1.1250 os         1 3HW      -0.295800
     33 C34         -5.4710     1.0110     1.4620 ca         1 3HW      -0.130500
     34 C35         -4.4160     0.6060     2.2570 ca         1 3HW      -0.112000
     35 S36         -0.1370    -1.5590     4.5230 s          1 3HW      -0.636400
     36 C37          0.6450     1.2120     1.8490 ca         1 3HW      -0.094000
     37 C38          1.7160     1.8350     1.2300 ca         1 3HW      -0.128000
     38 C39          4.5570     3.1640     0.7000 cc         1 3HW      -0.226300
     39 O40          6.3030     5.4420     0.4250 o          1 3HW      -0.809300
     40 H131         6.9340    -0.3610    -0.8270 ha         1 3HW       0.170000
     41 H171         2.1870    -1.6270     2.8520 ha         1 3HW       0.141500
     42 H211        -2.8820    -0.7750     4.0540 h1         1 3HW       0.070200
     43 H212        -2.6870    -2.2090     3.0660 h1         1 3HW       0.070200
     44 H241        -5.9690    -1.8780    -0.2410 ha         1 3HW       0.147000
     45 H281        -9.5500     2.2860    -1.7210 ha         1 3HW       0.157000
     46 H071         2.7070     0.1700    -1.3220 ha         1 3HW       0.165000
     47 H121         6.7700    -2.5740    -1.8890 ha         1 3HW       0.142000
     48 H161         4.0730    -0.5450     1.7350 ha         1 3HW       0.144500
     49 H201        -1.5420    -0.1520     1.5910 hn         1 3HW       0.326500
     50 H231        -4.1050    -2.5750     1.1670 ha         1 3HW       0.125000
     51 H271        -7.6250     2.6630     0.1580 ha         1 3HW       0.132000
     52 H341        -5.8460     2.0210     1.5600 ha         1 3HW       0.147000
     53 H351        -3.9860     1.3060     2.9640 ha         1 3HW       0.125000
     54 H371        -0.3040     1.7310     1.8940 ha         1 3HW       0.141500
     55 H381         1.5780     2.8130     0.7860 ha         1 3HW       0.144500
     56 H391         4.1550     3.9100     1.3650 ha         1 3HW       0.170000
     57 C02          6.6150     4.4530    -0.2640 c          1 3HW       0.840100
@<TRIPOS>BOND
     1     1    16 ar  
     2     1    18 1   
     3     1    19 ar  
     4     2    14 ar  
     5     2    19 ar  
     6     2    40 1   
     7     3    20 1   
     8     3    21 ar  
     9     3    37 ar  
    10     4    21 ar  
    11     4    22 ar  
    12     4    41 1   
    13     5     6 1   
    14     5    24 1   
    15     5    42 1   
    16     5    43 1   
    17     6    25 ar  
    18     6    34 ar  
    19     7    25 ar  
    20     7    26 ar  
    21     7    44 1   
    22     8    26 1   
    23     8    27 2   
    24     8    32 1   
    25     9    27 1   
    26     9    28 2   
    27     9    45 1   
    28    10    57 1   
    29    11    12 2   
    30    11    38 1   
    31    11    57 1   
    32    12    13 1   
    33    13    14 1   
    34    13    20 1   
    35    14    15 ar  
    36    15    16 ar  
    37    15    46 1   
    38    16    17 1   
    39    19    47 1   
    40    20    38 2   
    41    21    48 1   
    42    22    23 1   
    43    22    36 ar  
    44    23    24 1   
    45    23    35 2   
    46    24    49 1   
    47    25    50 1   
    48    26    33 ar  
    49    27    51 1   
    50    28    29 1   
    51    28    32 1   
    52    29    30 1   
    53    29    31 1   
    54    33    34 ar  
    55    33    52 1   
    56    34    53 1   
    57    36    37 ar  
    58    36    54 1   
    59    37    55 1   
    60    38    56 1   
    61    39    57 1   
@<TRIPOS>SUBSTRUCTURE
     1 3HW         1 TEMP              0 ****  ****    0 ROOT
