@<TRIPOS>MOLECULE
3HW
   57    61     1     0     0
SMALL
No Charge or Current Charge


@<TRIPOS>ATOM
      1 C10          6.6680    -2.5380    -0.0910 ca         1 3HW       0.095000
      2 C13          6.7100    -0.2120     0.6350 ca         1 3HW      -0.093000
      3 C15          2.8240     0.8320     0.4160 ca         1 3HW       0.028000
      4 C17          2.0480    -1.0830     1.7410 ca         1 3HW      -0.076000
      5 C21         -2.9200    -1.8480     2.2660 c3         1 3HW       0.140300
      6 C22         -4.1390    -1.0940     1.7560 ca         1 3HW      -0.155300
      7 C24         -5.8400    -0.7290     0.0480 ca         1 3HW      -0.112500
      8 C26         -7.5780     1.0420     0.2850 cc         1 3HW       0.099500
      9 C28         -9.2580     2.4710     0.0130 cd         1 3HW      -0.224000
     10 O01          6.3000     5.0650    -2.2340 o          1 3HW      -0.704000
     11 C03          5.0130     3.3670    -1.1850 cc         1 3HW       0.208500
     12 N04          5.9520     2.4350    -1.0550 nd         1 3HW      -0.483800
     13 N05          5.2580     1.4200    -0.4240 na         1 3HW       0.187000
     14 C06          5.7190     0.1090    -0.3140 ca         1 3HW       0.064800
     15 C07          5.2190    -0.8980    -1.1650 ca         1 3HW      -0.117000
     16 C08          5.6860    -2.2180    -1.0520 ca         1 3HW       0.128000
     17 Cl0          5.0230    -3.4520    -2.1230 cl         1 3HW      -0.181000
     18 Cl1          7.2760    -4.1850     0.0790 cl         1 3HW      -0.197000
     19 C12          7.1800    -1.5330     0.7480 ca         1 3HW      -0.096000
     20 C14          3.8960     1.6840    -0.1670 cd         1 3HW      -0.167000
     21 C16          3.0910    -0.3060     1.2070 ca         1 3HW      -0.110000
     22 C18          0.6950    -0.7500     1.5140 ca         1 3HW      -0.133600
     23 C19         -0.4140    -1.6110     2.1020 cs         1 3HW       0.409000
     24 N20         -1.6900    -1.2010     1.8230 ns         1 3HW      -0.381900
     25 C23         -4.7180    -1.4310     0.5200 ca         1 3HW      -0.094000
     26 C25         -6.4040     0.3230     0.8000 ca         1 3HW      -0.055500
     27 C27         -8.1830     2.1280     0.8610 cd         1 3HW      -0.165000
     28 C29         -9.2560     1.5790    -1.0370 cc         1 3HW       0.138500
     29 C30        -10.2140     1.5460    -2.1940 c          1 3HW       0.627500
     30 O31        -10.0780     0.6830    -3.0530 o          1 3HW      -0.696000
     31 O32        -11.1090     2.3810    -2.2490 o          1 3HW      -0.696000
     32 O33         -8.2130     0.6830    -0.8810 os         1 3HW      -0.207000
     33 C34         -5.8160     0.6560     2.0400 ca         1 3HW      -0.112500
     34 C35         -4.6930    -0.0460     2.5130 ca         1 3HW      -0.094000
     35 S36         -0.1160    -2.9790     3.0320 s          1 3HW      -0.636400
     36 C37          0.4270     0.4040     0.7390 ca         1 3HW      -0.076000
     37 C38          1.4740     1.1790     0.2090 ca         1 3HW      -0.110000
     38 C39          3.7580     2.9400    -0.6900 cc         1 3HW      -0.143000
     39 O40          4.2370     5.5000    -1.8720 o          1 3HW      -0.704000
     40 H131         7.1090     0.5640     1.2850 ha         1 3HW       0.152000
     41 H171         2.3110    -1.9480     2.3440 ha         1 3HW       0.123500
     42 H211        -2.9330    -1.8820     3.3630 h1         1 3HW       0.070200
     43 H212        -2.9360    -2.8810     1.8930 h1         1 3HW       0.070200
     44 H241        -6.2710    -1.0080    -0.9110 ha         1 3HW       0.129000
     45 H281        -9.9610     3.2860     0.1540 ha         1 3HW       0.139000
     46 H071         4.4630    -0.6560    -1.9070 ha         1 3HW       0.147000
     47 H121         7.9410    -1.7770     1.4850 ha         1 3HW       0.124000
     48 H161         4.1050    -0.5920     1.4560 ha         1 3HW       0.126500
     49 H201        -1.7930    -0.3700     1.2560 hn         1 3HW       0.326500
     50 H231        -4.2980    -2.2370    -0.0790 ha         1 3HW       0.107000
     51 H271        -7.9010     2.6320     1.7790 ha         1 3HW       0.114000
     52 H341        -6.2210     1.4580     2.6510 ha         1 3HW       0.129000
     53 H351        -4.2540     0.2280     3.4700 ha         1 3HW       0.107000
     54 H371        -0.5900     0.7230     0.5290 ha         1 3HW       0.123500
     55 H381         1.2170     2.0480    -0.3890 ha         1 3HW       0.126500
     56 H391         2.8590     3.5460    -0.7180 ha         1 3HW       0.152000
     57 C02          5.1960     4.7390    -1.8070 c          1 3HW       0.629500
@<TRIPOS>BOND
     1     1    16 ar  
     2     1    18 1   
     3     1    19 ar  
     4     2    14 ar  
     5     2    19 ar  
     6     2    40 1   
     7     3    20 1   
     8     3    21 ar  
     9     3    37 ar  
    10     4    21 ar  
    11     4    22 ar  
    12     4    41 1   
    13     5     6 1   
    14     5    24 1   
    15     5    42 1   
    16     5    43 1   
    17     6    25 ar  
    18     6    34 ar  
    19     7    25 ar  
    20     7    26 ar  
    21     7    44 1   
    22     8    26 1   
    23     8    27 2   
    24     8    32 1   
    25     9    27 1   
    26     9    28 2   
    27     9    45 1   
    28    10    57 1   
    29    11    12 2   
    30    11    38 1   
    31    11    57 1   
    32    12    13 1   
    33    13    14 1   
    34    13    20 1   
    35    14    15 ar  
    36    15    16 ar  
    37    15    46 1   
    38    16    17 1   
    39    19    47 1   
    40    20    38 2   
    41    21    48 1   
    42    22    23 1   
    43    22    36 ar  
    44    23    24 1   
    45    23    35 2   
    46    24    49 1   
    47    25    50 1   
    48    26    33 ar  
    49    27    51 1   
    50    28    29 1   
    51    28    32 1   
    52    29    30 1   
    53    29    31 1   
    54    33    34 ar  
    55    33    52 1   
    56    34    53 1   
    57    36    37 ar  
    58    36    54 1   
    59    37    55 1   
    60    38    56 1   
    61    39    57 1   
@<TRIPOS>SUBSTRUCTURE
     1 3HW         1 TEMP              0 ****  ****    0 ROOT
