@<TRIPOS>MOLECULE
3HX
   39    38     1     0     0
SMALL
bcc


@<TRIPOS>ATOM
      1 NO           0.5140     1.5780     8.2450 no         1 3HX       0.475500
      2 O2           0.5410     2.4860     9.0440 o          1 3HX      -0.212000
      3 O3           0.5250     0.4030     8.5250 o          1 3HX      -0.212000
      4 N           -3.2050     2.8310     0.5110 n8         1 3HX      -0.888800
      5 CA          -1.9320     2.2130     0.1580 c3         1 3HX       0.166500
      6 C           -2.1340     1.4900    -1.1720 c3         1 3HX       0.146800
      7 CB          -1.3620     1.2740     1.2250 c3         1 3HX      -0.111400
      8 CG          -1.1130     1.9550     2.5640 c3         1 3HX      -0.094400
      9 CD          -0.5060     0.9970     3.5760 c3         1 3HX       0.226800
     10 NE          -0.3190     1.6610     4.8480 nu         1 3HX      -0.861200
     11 CZ           0.3670     1.0530     5.8480 c2         1 3HX       0.838100
     12 NH1          0.4650     1.9350     6.9550 nu         1 3HX      -0.889500
     13 NH2          0.8950    -0.0920     5.7290 n2         1 3HX      -0.825100
     14 NA          -0.9260     0.8760    -1.6870 n3         1 3HX      -0.474100
     15 O1          -0.0440     1.9200    -2.0570 oh         1 3HX      -0.444300
     16 C1          -1.1800     0.0740    -2.8700 c3         1 3HX       0.103800
     17 C2           0.0630    -0.6630    -3.3600 c3         1 3HX       0.143800
     18 HN2         -3.8390     2.1250     0.8710 hn         1 3HX       0.339300
     19 HA          -1.2200     3.0290     0.0020 h1         1 3HX       0.068700
     20 H1          -2.8620     0.6850    -1.0260 h1         1 3HX       0.054200
     21 H2          -2.5770     2.1910    -1.8970 h1         1 3HX       0.054200
     22 HB1         -0.4260     0.8420     0.8590 hc         1 3HX       0.054700
     23 HB2         -2.0540     0.4340     1.3610 hc         1 3HX       0.054700
     24 HG1         -2.0530     2.3490     2.9630 hc         1 3HX       0.040700
     25 HG2         -0.4430     2.8090     2.4290 hc         1 3HX       0.040700
     26 HD1         -1.1450     0.1120     3.6820 h1         1 3HX       0.058200
     27 HD2          0.4650     0.6420     3.2250 h1         1 3HX       0.058200
     28 HNE         -1.0470     2.3050     5.1190 hn         1 3HX       0.422800
     29 HNH1         0.3980     2.9360     6.8210 hn         1 3HX       0.476800
     30 HNH2         1.4790    -0.3430     6.5130 hn         1 3HX       0.428400
     31 HO1          0.7300     1.7820    -1.5020 ho         1 3HX       0.413000
     32 HNB1        -0.5690    -1.0100    -5.2590 hn         1 3HX       0.335800
     33 HNB2        -0.8720    -2.2330    -4.2510 hn         1 3HX       0.335800
     34 H1'1        -1.6030     0.6760    -3.6910 h1         1 3HX       0.041200
     35 H1'2        -1.9390    -0.6640    -2.5970 h1         1 3HX       0.041200
     36 H2'1         0.4750    -1.2540    -2.5380 h1         1 3HX       0.062700
     37 H2'2         0.8350     0.0570    -3.6410 h1         1 3HX       0.062700
     38 HN1         -3.0760     3.4940     1.2650 hn         1 3HX       0.339300
     39 NB          -0.1730    -1.5420    -4.4940 n8         1 3HX      -0.876800
@<TRIPOS>BOND
     1     1     2 1   
     2     1     3 1   
     3     1    12 1   
     4     4     5 1   
     5     4    18 1   
     6     4    38 1   
     7     5     6 1   
     8     5     7 1   
     9     5    19 1   
    10     6    14 1   
    11     6    20 1   
    12     6    21 1   
    13     7     8 1   
    14     7    22 1   
    15     7    23 1   
    16     8     9 1   
    17     8    24 1   
    18     8    25 1   
    19     9    10 1   
    20     9    26 1   
    21     9    27 1   
    22    10    11 1   
    23    10    28 1   
    24    11    12 1   
    25    11    13 2   
    26    12    29 1   
    27    13    30 1   
    28    14    15 1   
    29    14    16 1   
    30    15    31 1   
    31    16    17 1   
    32    16    34 1   
    33    16    35 1   
    34    17    36 1   
    35    17    37 1   
    36    17    39 1   
    37    32    39 1   
    38    33    39 1   
@<TRIPOS>SUBSTRUCTURE
     1 3HX         1 TEMP              0 ****  ****    0 ROOT
