@<TRIPOS>MOLECULE
3HX
   39    38     1     0     0
SMALL
No Charge or Current Charge


@<TRIPOS>ATOM
      1 NO           0.8910     2.3090     7.7610 no         1 3HX       0.855500
      2 O2           0.7230     3.5030     7.5440 o          1 3HX      -0.402000
      3 O3           0.2840     1.7080     8.6470 o          1 3HX      -0.402000
      4 N           -3.3180     2.6820     0.7460 n8         1 3HX      -0.999200
      5 CA          -2.0260     2.0900     0.3170 c3         1 3HX       0.166500
      6 C           -2.1530     1.4310    -1.0950 c3         1 3HX       0.146800
      7 CB          -1.5110     1.1020     1.3970 c3         1 3HX      -0.111400
      8 CG          -1.2360     1.7410     2.7830 c3         1 3HX      -0.094400
      9 CD          -0.6420     0.7400     3.7950 c3         1 3HX       0.226800
     10 NE          -0.3850     1.4080     5.0820 nu         1 3HX      -0.916400
     11 CZ           0.1410     0.7910     6.1450 c2         1 3HX       0.838100
     12 NH1          1.0130     1.6260     6.6150 nu         1 3HX      -0.944700
     13 NH2          0.4910    -0.4040     6.0940 n2         1 3HX      -0.825100
     14 NA          -0.8860     0.8990    -1.6750 n3         1 3HX      -0.474100
     15 O1           0.0040     2.0470    -1.9340 oh         1 3HX      -0.483300
     16 C1          -1.0760     0.1810    -2.9620 c3         1 3HX       0.103800
     17 C2           0.2100    -0.4830    -3.5280 c3         1 3HX       0.143800
     18 HN2         -3.9800     1.9240     0.9490 hn         1 3HX       0.394500
     19 HA          -1.3000     2.9120     0.2330 h1         1 3HX       0.068700
     20 H1          -2.8810     0.6130    -1.0150 h1         1 3HX       0.054200
     21 H2          -2.5850     2.1700    -1.7830 h1         1 3HX       0.054200
     22 HB1         -0.5780     0.6490     1.0400 hc         1 3HX       0.054700
     23 HB2         -2.2280     0.2790     1.5110 hc         1 3HX       0.054700
     24 HG1         -2.1670     2.1480     3.1950 hc         1 3HX       0.040700
     25 HG2         -0.5400     2.5800     2.6590 hc         1 3HX       0.040700
     26 HD1         -1.3420    -0.0960     3.9320 h1         1 3HX       0.058200
     27 HD2          0.2950     0.3320     3.3880 h1         1 3HX       0.058200
     28 HNE         -1.0880     2.0900     5.3520 hn         1 3HX       0.478000
     29 HNH1         1.1170     2.3490     5.9290 hn         1 3HX       0.532000
     30 HNH2         1.2470    -0.4650     6.7820 hn         1 3HX       0.428400
     31 HO1          0.8020     1.8820    -1.3770 ho         1 3HX       0.452000
     32 HNB1        -0.4590    -0.6360    -5.4770 hn         1 3HX       0.391000
     33 HNB2        -0.7650    -1.9580    -4.5990 hn         1 3HX       0.391000
     34 H1'1        -1.4800     0.8710    -3.7160 h1         1 3HX       0.041200
     35 H1'2        -1.8240    -0.6100    -2.8180 h1         1 3HX       0.041200
     36 H2'1         0.6270    -1.1600    -2.7680 h1         1 3HX       0.062700
     37 H2'2         0.9610     0.2930    -3.7360 h1         1 3HX       0.062700
     38 HN1         -3.1850     3.1320     1.6580 hn         1 3HX       0.394500
     39 NB          -0.0350    -1.2560    -4.7750 n8         1 3HX      -0.987200
@<TRIPOS>BOND
     1     1     2 1   
     2     1     3 1   
     3     1    12 1   
     4     4     5 1   
     5     4    18 1   
     6     4    38 1   
     7     5     6 1   
     8     5     7 1   
     9     5    19 1   
    10     6    14 1   
    11     6    20 1   
    12     6    21 1   
    13     7     8 1   
    14     7    22 1   
    15     7    23 1   
    16     8     9 1   
    17     8    24 1   
    18     8    25 1   
    19     9    10 1   
    20     9    26 1   
    21     9    27 1   
    22    10    11 1   
    23    10    28 1   
    24    11    12 1   
    25    11    13 2   
    26    12    29 1   
    27    13    30 1   
    28    14    15 1   
    29    14    16 1   
    30    15    31 1   
    31    16    17 1   
    32    16    34 1   
    33    16    35 1   
    34    17    36 1   
    35    17    37 1   
    36    17    39 1   
    37    32    39 1   
    38    33    39 1   
@<TRIPOS>SUBSTRUCTURE
     1 3HX         1 TEMP              0 ****  ****    0 ROOT
