@<TRIPOS>MOLECULE
3HY
   17    17     1     0     0
SMALL
abcg2


@<TRIPOS>ATOM
      1 C4           0.4430     1.5400     0.2680 ca         1 3HY      -0.147000
      2 C5          -0.8880     1.9030     0.1180 ca         1 3HY      -0.075000
      3 C6          -1.8590     0.9530    -0.1530 ca         1 3HY      -0.144000
      4 C7          -1.4880    -0.3840    -0.2730 ca         1 3HY       0.135100
      5 C8          -0.1550    -0.7550    -0.1180 ca         1 3HY      -0.179000
      6 O1           2.5540    -1.3430    -0.3800 oh         1 3HY      -0.657000
      7 C3           0.8150     0.2030     0.1540 ca         1 3HY      -0.046300
      8 O2          -2.4580    -1.2830    -0.5420 oh         1 3HY      -0.536100
      9 H1           1.1930     2.2960     0.4660 ha         1 3HY       0.112000
     10 H2          -1.1730     2.9440     0.2050 ha         1 3HY       0.114000
     11 H3          -2.8970     1.2400    -0.2770 ha         1 3HY       0.128000
     12 H4           0.1240    -1.7990    -0.2120 ha         1 3HY       0.126000
     13 H5           2.4050    -0.3650     1.4430 h1         1 3HY       0.027200
     14 H6           2.8970     0.6530     0.0980 h1         1 3HY       0.027200
     15 H7           3.4190    -1.6590    -0.1040 ho         1 3HY       0.445000
     16 H8          -2.0880    -2.1720    -0.5840 ho         1 3HY       0.465000
     17 C2           2.2510    -0.1920     0.3690 c3         1 3HY       0.206900
@<TRIPOS>BOND
     1     1     2 ar  
     2     1     7 ar  
     3     1     9 1   
     4     2     3 ar  
     5     2    10 1   
     6     3     4 ar  
     7     3    11 1   
     8     4     5 ar  
     9     4     8 1   
    10     5     7 ar  
    11     5    12 1   
    12     6    15 1   
    13     6    17 1   
    14     7    17 1   
    15     8    16 1   
    16    13    17 1   
    17    14    17 1   
@<TRIPOS>SUBSTRUCTURE
     1 3HY         1 TEMP              0 ****  ****    0 ROOT
