@<TRIPOS>MOLECULE
3HZ
   63    67     1     0     0
SMALL
No Charge or Current Charge


@<TRIPOS>ATOM
      1 C10          5.7330     9.7050    22.8110 ca         1 3HZ       0.100000
      2 C13          5.2730    11.8180    23.9370 ca         1 3HZ      -0.096000
      3 C15          9.0360    13.1630    24.5480 ca         1 3HZ       0.005000
      4 C17         11.4150    12.7630    24.9830 ca         1 3HZ      -0.100500
      5 C21         11.8330     8.1300    26.5120 c          1 3HZ       0.601100
      6 C22         11.8940     8.4230    28.0150 c3         1 3HZ      -0.174100
      7 C24         12.0470     8.8400    24.1230 c3         1 3HZ       0.141300
      8 C26         14.0810     9.9630    23.0830 ca         1 3HZ      -0.101000
      9 C28         13.8640    11.7780    21.4520 ca         1 3HZ      -0.075500
     10 O01          7.5000    18.0980    23.0210 o          1 3HZ      -0.706500
     11 C03          6.8440    15.8230    23.1830 cc         1 3HZ       0.219500
     12 N04          5.9850    14.8230    23.0030 nd         1 3HZ      -0.482800
     13 N05          6.6860    13.7520    23.5240 na         1 3HZ       0.168000
     14 C06          6.3680    12.4140    23.2810 ca         1 3HZ       0.067800
     15 C07          7.1300    11.6540    22.3700 ca         1 3HZ      -0.113000
     16 C08          6.8230    10.3030    22.1410 ca         1 3HZ       0.133000
     17 Cl0          7.8250     9.3790    21.0200 cl         1 3HZ      -0.185000
     18 Cl1          5.3180     8.0110    22.5490 cl         1 3HZ      -0.205000
     19 C12          4.9570    10.4670    23.7030 ca         1 3HZ      -0.097000
     20 C14          7.9730    14.0510    24.0150 cd         1 3HZ      -0.150000
     21 C16         10.3800    13.5910    24.5160 ca         1 3HZ      -0.102000
     22 C18         11.1270    11.4920    25.5100 ca         1 3HZ      -0.121300
     23 C19         12.2630    10.5850    25.9750 c3         1 3HZ       0.151300
     24 N20         12.1060     9.1570    25.5760 n          1 3HZ      -0.404800
     25 O23         11.5660     6.9960    26.1330 o          1 3HZ      -0.627100
     26 C25         12.6820     9.8630    23.1830 ca         1 3HZ      -0.132300
     27 C27         14.6680    10.9110    22.2260 ca         1 3HZ      -0.112000
     28 C29         14.4550    12.7780    20.5510 cc         1 3HZ       0.114500
     29 C30         15.7840    13.1020    20.4600 cd         1 3HZ      -0.171000
     30 C31         15.8730    14.1080    19.4740 cd         1 3HZ      -0.224000
     31 C32         14.5960    14.3510    19.0140 cc         1 3HZ       0.146500
     32 C33         14.1910    15.3420    17.9580 c          1 3HZ       0.619500
     33 O34         15.0540    16.0280    17.4220 o          1 3HZ      -0.700000
     34 O35         13.0070    15.4400    17.6560 o          1 3HZ      -0.700000
     35 O36         13.7010    13.5300    19.6800 os         1 3HZ      -0.221000
     36 C37         12.4600    11.6650    21.5520 ca         1 3HZ      -0.112000
     37 C38         11.8750    10.7160    22.4070 ca         1 3HZ      -0.101000
     38 C39          9.7870    11.0730    25.5900 ca         1 3HZ      -0.100500
     39 C40          8.7540    11.8990    25.1150 ca         1 3HZ      -0.102000
     40 C41          8.0640    15.3900    23.7550 cc         1 3HZ      -0.148000
     41 O42          5.5450    17.6070    22.3030 o          1 3HZ      -0.706500
     42 H131         4.6730    12.4020    24.6320 ha         1 3HZ       0.149000
     43 H171        12.4450    13.1070    24.9160 ha         1 3HZ       0.112000
     44 H222        11.7070     7.5310    28.6230 hc         1 3HZ       0.056033
     45 H223        12.8630     8.8740    28.2580 hc         1 3HZ       0.056033
     46 H221        11.1810     9.2190    28.2580 hc         1 3HZ       0.056033
     47 H241        10.9920     8.7050    23.8470 h1         1 3HZ       0.069700
     48 H242        12.5440     7.8750    23.9520 h1         1 3HZ       0.069700
     49 H071         7.9720    12.1080    21.8520 ha         1 3HZ       0.150000
     50 H121         4.1150    10.0080    24.2160 ha         1 3HZ       0.123000
     51 H161        10.6400    14.5580    24.0930 ha         1 3HZ       0.124000
     52 H192        12.3600    10.6950    27.0600 h1         1 3HZ       0.055700
     53 H191        13.2090    10.9530    25.5570 h1         1 3HZ       0.055700
     54 H271        15.7520    10.9610    22.1710 ha         1 3HZ       0.124500
     55 H301        16.6060    12.6800    21.0270 ha         1 3HZ       0.111000
     56 H311        16.7760    14.6060    19.1350 ha         1 3HZ       0.136000
     57 H371        11.8150    12.3200    20.9710 ha         1 3HZ       0.124500
     58 H381        10.7900    10.6550    22.4770 ha         1 3HZ       0.111000
     59 H391         9.5400    10.1030    26.0150 ha         1 3HZ       0.112000
     60 H401         7.7340    11.5490    25.2220 ha         1 3HZ       0.124000
     61 H411         8.9060    16.0420    23.9610 ha         1 3HZ       0.152000
     62 C02          6.6130    17.2760    22.8090 c          1 3HZ       0.622500
     63 H261        14.7170     9.3080    23.6750 ha         1 3HZ       0.111000
@<TRIPOS>BOND
     1     1    16 ar  
     2     1    18 1   
     3     1    19 ar  
     4     2    14 ar  
     5     2    19 ar  
     6     2    42 1   
     7     3    20 1   
     8     3    21 ar  
     9     3    39 ar  
    10     4    21 ar  
    11     4    22 ar  
    12     4    43 1   
    13     5     6 1   
    14     5    24 1   
    15     5    25 2   
    16     6    44 1   
    17     6    45 1   
    18     6    46 1   
    19     7    24 1   
    20     7    26 1   
    21     7    47 1   
    22     7    48 1   
    23     8    26 ar  
    24     8    27 ar  
    25     8    63 1   
    26     9    27 ar  
    27     9    28 1   
    28     9    36 ar  
    29    10    62 1   
    30    11    12 2   
    31    11    40 1   
    32    11    62 1   
    33    12    13 1   
    34    13    14 1   
    35    13    20 1   
    36    14    15 ar  
    37    15    16 ar  
    38    15    49 1   
    39    16    17 1   
    40    19    50 1   
    41    20    40 2   
    42    21    51 1   
    43    22    23 1   
    44    22    38 ar  
    45    23    24 1   
    46    23    52 1   
    47    23    53 1   
    48    26    37 ar  
    49    27    54 1   
    50    28    29 2   
    51    28    35 1   
    52    29    30 1   
    53    29    55 1   
    54    30    31 2   
    55    30    56 1   
    56    31    32 1   
    57    31    35 1   
    58    32    33 1   
    59    32    34 1   
    60    36    37 ar  
    61    36    57 1   
    62    37    58 1   
    63    38    39 ar  
    64    38    59 1   
    65    39    60 1   
    66    40    61 1   
    67    41    62 1   
@<TRIPOS>SUBSTRUCTURE
     1 3HZ         1 TEMP              0 ****  ****    0 ROOT
