@<TRIPOS>MOLECULE
3HZ
   63    67     1     0     0
SMALL
abcg2


@<TRIPOS>ATOM
      1 C10          5.5800     9.1620    23.2390 ca         1 3HZ       0.100000
      2 C13          4.5440    11.0360    24.3460 ca         1 3HZ      -0.096000
      3 C15          7.9640    13.4840    24.8130 ca         1 3HZ       0.005000
      4 C17         10.3500    13.5660    24.4380 ca         1 3HZ      -0.100500
      5 C21         12.1900     9.3290    25.6930 c          1 3HZ       0.601100
      6 C22         12.4430     9.5910    27.1620 c3         1 3HZ      -0.174100
      7 C24         11.6780    10.1810    23.4600 c3         1 3HZ       0.141300
      8 C26         14.0450     9.8810    22.6400 ca         1 3HZ      -0.101000
      9 C28         15.0750    11.4270    21.0850 ca         1 3HZ      -0.075500
     10 O01          4.2220    17.4910    24.6620 o          1 3HZ      -0.706500
     11 C03          4.7490    15.2180    24.4040 cc         1 3HZ       0.219500
     12 N04          4.4060    13.9670    24.1040 nd         1 3HZ      -0.482800
     13 N05          5.5480    13.2440    24.2000 na         1 3HZ       0.168000
     14 C06          5.5420    11.8710    23.8540 ca         1 3HZ       0.067800
     15 C07          6.5430    11.3640    23.0350 ca         1 3HZ      -0.113000
     16 C08          6.5720    10.0080    22.7420 ca         1 3HZ       0.133000
     17 CL0          7.8640     9.4030    21.7490 cl         1 3HZ      -0.185000
     18 CL1          5.5900     7.4600    22.8930 cl         1 3HZ      -0.205000
     19 C12          4.5630     9.6870    24.0300 ca         1 3HZ      -0.097000
     20 C14          6.6220    14.0200    24.5680 cd         1 3HZ      -0.150000
     21 C16          9.0820    14.1050    24.2560 ca         1 3HZ      -0.102000
     22 C18         10.5300    12.4030    25.1810 ca         1 3HZ      -0.121300
     23 C19         11.9020    11.7840    25.3290 c3         1 3HZ       0.151300
     24 N20         11.9240    10.3910    24.8900 n          1 3HZ      -0.404800
     25 O23         12.2320     8.1770    25.2520 o          1 3HZ      -0.627100
     26 C25         12.8510    10.6080    22.6130 ca         1 3HZ      -0.132300
     27 C27         15.1370    10.2780    21.8900 ca         1 3HZ      -0.112000
     28 C29         16.2280    11.8330    20.3010 cc         1 3HZ       0.114500
     29 C30         17.4340    11.2390    20.0350 cd         1 3HZ      -0.171000
     30 C31         18.1490    12.1300    19.1890 cd         1 3HZ      -0.224000
     31 C32         17.3500    13.2180    18.9830 cc         1 3HZ       0.146500
     32 C33         17.5450    14.4840    18.2030 c          1 3HZ       0.619500
     33 O34         18.6430    14.5770    17.5960 o          1 3HZ      -0.700000
     34 O35         16.6160    15.3270    18.2280 o          1 3HZ      -0.700000
     35 O36         16.1720    13.0380    19.6630 os         1 3HZ      -0.221000
     36 C37         13.8800    12.1550    21.0590 ca         1 3HZ      -0.112000
     37 C38         12.7870    11.7460    21.8140 ca         1 3HZ      -0.101000
     38 C39          9.4160    11.8010    25.7660 ca         1 3HZ      -0.100500
     39 C40          8.1500    12.3340    25.5900 ca         1 3HZ      -0.102000
     40 C41          6.1300    15.3010    24.6940 cc         1 3HZ      -0.148000
     41 O42          2.5440    16.0750    24.1850 o          1 3HZ      -0.706500
     42 H131         3.7680    11.4370    24.9810 ha         1 3HZ       0.149000
     43 H171        11.2060    14.0390    23.9720 ha         1 3HZ       0.112000
     44 H222        12.5700     8.6310    27.6550 hc         1 3HZ       0.056033
     45 H223        13.3500    10.1830    27.3000 hc         1 3HZ       0.056033
     46 H221        11.6180    10.1290    27.6300 hc         1 3HZ       0.056033
     47 H241        10.7900    10.7480    23.1780 h1         1 3HZ       0.069700
     48 H242        11.4660     9.1250    23.3210 h1         1 3HZ       0.069700
     49 H071         7.3060    12.0100    22.6290 ha         1 3HZ       0.150000
     50 H121         3.7970     9.0270    24.4120 ha         1 3HZ       0.123000
     51 H161         8.9520    14.9910    23.6470 ha         1 3HZ       0.124000
     52 H192        12.2320    11.8410    26.3620 h1         1 3HZ       0.055700
     53 H191        12.6210    12.3500    24.7330 h1         1 3HZ       0.055700
     54 H271        16.0510     9.7000    21.9320 ha         1 3HZ       0.124500
     55 H301        17.7640    10.2780    20.3950 ha         1 3HZ       0.111000
     56 H311        19.1340    11.9900    18.7770 ha         1 3HZ       0.136000
     57 H371        13.8070    13.0430    20.4460 ha         1 3HZ       0.124500
     58 H381        11.8710    12.3240    21.7840 ha         1 3HZ       0.111000
     59 H391         9.5370    10.8980    26.3510 ha         1 3HZ       0.112000
     60 H401         7.2970    11.8510    26.0470 ha         1 3HZ       0.124000
     61 H411         6.6810    16.1740    24.9960 ha         1 3HZ       0.152000
     62 C02          3.7450    16.3540    24.4160 c          1 3HZ       0.622500
     63 H261        14.1160     8.9960    23.2610 ha         1 3HZ       0.111000
@<TRIPOS>BOND
     1     1    16 ar  
     2     1    18 1   
     3     1    19 ar  
     4     2    14 ar  
     5     2    19 ar  
     6     2    42 1   
     7     3    20 1   
     8     3    21 ar  
     9     3    39 ar  
    10     4    21 ar  
    11     4    22 ar  
    12     4    43 1   
    13     5     6 1   
    14     5    24 1   
    15     5    25 2   
    16     6    44 1   
    17     6    45 1   
    18     6    46 1   
    19     7    24 1   
    20     7    26 1   
    21     7    47 1   
    22     7    48 1   
    23     8    26 ar  
    24     8    27 ar  
    25     8    63 1   
    26     9    27 ar  
    27     9    28 1   
    28     9    36 ar  
    29    10    62 1   
    30    11    12 2   
    31    11    40 1   
    32    11    62 1   
    33    12    13 1   
    34    13    14 1   
    35    13    20 1   
    36    14    15 ar  
    37    15    16 ar  
    38    15    49 1   
    39    16    17 1   
    40    19    50 1   
    41    20    40 2   
    42    21    51 1   
    43    22    23 1   
    44    22    38 ar  
    45    23    24 1   
    46    23    52 1   
    47    23    53 1   
    48    26    37 ar  
    49    27    54 1   
    50    28    29 2   
    51    28    35 1   
    52    29    30 1   
    53    29    55 1   
    54    30    31 2   
    55    30    56 1   
    56    31    32 1   
    57    31    35 1   
    58    32    33 1   
    59    32    34 1   
    60    36    37 ar  
    61    36    57 1   
    62    37    58 1   
    63    38    39 ar  
    64    38    59 1   
    65    39    60 1   
    66    40    61 1   
    67    41    62 1   
@<TRIPOS>SUBSTRUCTURE
     1 3HZ         1 TEMP              0 ****  ****    0 ROOT
