@<TRIPOS>MOLECULE
3I0
   27    28     1     0     0
SMALL
bcc


@<TRIPOS>ATOM
      1 S1          50.5530   -11.3480    -1.9950 s6         1 3I0       1.274100
      2 C2          53.2510   -13.2020    -4.3520 ca         1 3I0       0.096100
      3 C3          52.5630   -12.7130    -3.2710 ca         1 3I0      -0.152000
      4 C5          50.9110   -11.7230    -4.7060 ca         1 3I0      -0.059000
      5 C6          51.6010   -12.2140    -5.8420 ca         1 3I0      -0.027000
      6 C9          52.9000   -13.1750    -8.1040 ca         1 3I0      -0.141000
      7 C           53.4560   -13.4610    -6.8680 ca         1 3I0       0.140600
      8 C1          52.7960   -12.9740    -5.6860 ca         1 3I0      -0.052000
      9 C4          51.3850   -11.9700    -3.4530 ca         1 3I0      -0.206500
     10 C7          51.0810   -11.9420    -7.1260 ca         1 3I0      -0.080000
     11 C8          51.7290   -12.4210    -8.2290 ca         1 3I0      -0.191500
     12 O3          49.2850   -10.7660    -2.4640 o          1 3I0      -0.706200
     13 O4          51.4880   -10.3550    -1.4380 o          1 3I0      -0.706200
     14 O5          50.3750   -12.5330    -1.1390 o          1 3I0      -0.706200
     15 S           51.0970   -12.1170    -9.8810 s6         1 3I0       1.270100
     16 H1          52.9330   -12.9120    -2.2710 ha         1 3I0       0.126000
     17 H2          50.0040   -11.1530    -4.8570 ha         1 3I0       0.153000
     18 H3          53.3980   -13.5520    -8.9900 ha         1 3I0       0.125000
     19 H4          54.8830   -14.6430    -5.9890 hn         1 3I0       0.391300
     20 H5          54.8770   -14.6480    -7.6730 hn         1 3I0       0.391300
     21 H6          50.1740   -11.3590    -7.2120 ha         1 3I0       0.153000
     22 H7          54.5800   -14.0210    -3.2420 ho         1 3I0       0.410000
     23 N           54.6380   -14.1530    -6.8300 nv         1 3I0      -0.853200
     24 O6          54.3790   -13.9210    -4.1810 oh         1 3I0      -0.534100
     25 O           52.1810   -11.3980   -10.5730 o          1 3I0      -0.705867
     26 O1          49.8750   -11.3150    -9.7040 o          1 3I0      -0.705867
     27 O2          50.8450   -13.4580   -10.4360 o          1 3I0      -0.705867
@<TRIPOS>BOND
     1     1     9 1   
     2     1    12 1   
     3     1    13 1   
     4     1    14 1   
     5     2     3 ar  
     6     2     8 ar  
     7     2    24 1   
     8     3     9 ar  
     9     3    16 1   
    10     4     5 ar  
    11     4     9 ar  
    12     4    17 1   
    13     5     8 ar  
    14     5    10 ar  
    15     6     7 ar  
    16     6    11 ar  
    17     6    18 1   
    18     7     8 ar  
    19     7    23 1   
    20    10    11 ar  
    21    10    21 1   
    22    11    15 1   
    23    15    25 1   
    24    15    26 1   
    25    15    27 1   
    26    19    23 1   
    27    20    23 1   
    28    22    24 1   
@<TRIPOS>SUBSTRUCTURE
     1 3I0         1 TEMP              0 ****  ****    0 ROOT
