@<TRIPOS>MOLECULE
3I0
   27    28     1     0     0
SMALL
No Charge or Current Charge


@<TRIPOS>ATOM
      1 S1          50.5400   -11.2400    -1.9490 s6         1 3I0       1.274100
      2 C2          53.2520   -13.3100    -4.3650 ca         1 3I0       0.096100
      3 C3          52.5740   -12.7730    -3.2560 ca         1 3I0      -0.134000
      4 C5          50.9800   -11.6890    -4.7190 ca         1 3I0      -0.041000
      5 C6          51.6420   -12.2180    -5.8440 ca         1 3I0      -0.027000
      6 C9          52.8940   -13.2220    -8.1430 ca         1 3I0      -0.123000
      7 C           53.4230   -13.5300    -6.8780 ca         1 3I0       0.279000
      8 C1          52.7950   -13.0350    -5.6930 ca         1 3I0      -0.052000
      9 C4          51.4320   -11.9620    -3.4160 ca         1 3I0      -0.206500
     10 C7          51.1320   -11.9160    -7.1210 ca         1 3I0      -0.062000
     11 C8          51.7430   -12.4200    -8.2840 ca         1 3I0      -0.191500
     12 O3          49.1440   -11.2160    -2.4140 o          1 3I0      -0.706200
     13 O4          51.1920    -9.9260    -1.8340 o          1 3I0      -0.706200
     14 O5          50.8530   -12.2020    -0.8800 o          1 3I0      -0.706200
     15 S           51.0640   -12.0070    -9.9680 s6         1 3I0       1.270100
     16 H1          52.9370   -12.9850    -2.2520 ha         1 3I0       0.108000
     17 H2          50.1030   -11.0590    -4.8590 ha         1 3I0       0.135000
     18 H3          53.3870   -13.6040    -9.0330 ha         1 3I0       0.107000
     19 H4          54.8630   -14.6240    -5.9280 hn         1 3I0       0.446500
     20 H5          54.8060   -14.8770    -7.6570 hn         1 3I0       0.446500
     21 H6          50.2510   -11.2840    -7.2110 ha         1 3I0       0.135000
     22 H7          54.4640   -14.1410    -3.1250 ho         1 3I0       0.449000
     23 N           54.5540   -14.3110    -6.8500 nv         1 3I0      -1.102000
     24 O6          54.3430   -14.0980    -4.0980 oh         1 3I0      -0.573100
     25 O           51.8260   -10.7920   -10.2950 o          1 3I0      -0.705867
     26 O1          49.6330   -11.8040    -9.6890 o          1 3I0      -0.705867
     27 O2          51.4110   -13.2040   -10.7500 o          1 3I0      -0.705867
@<TRIPOS>BOND
     1     1     9 1   
     2     1    12 1   
     3     1    13 1   
     4     1    14 1   
     5     2     3 ar  
     6     2     8 ar  
     7     2    24 1   
     8     3     9 ar  
     9     3    16 1   
    10     4     5 ar  
    11     4     9 ar  
    12     4    17 1   
    13     5     8 ar  
    14     5    10 ar  
    15     6     7 ar  
    16     6    11 ar  
    17     6    18 1   
    18     7     8 ar  
    19     7    23 1   
    20    10    11 ar  
    21    10    21 1   
    22    11    15 1   
    23    15    25 1   
    24    15    26 1   
    25    15    27 1   
    26    19    23 1   
    27    20    23 1   
    28    22    24 1   
@<TRIPOS>SUBSTRUCTURE
     1 3I0         1 TEMP              0 ****  ****    0 ROOT
