@<TRIPOS>MOLECULE
3I2
   32    32     1     0     0
SMALL
abcg2


@<TRIPOS>ATOM
      1 C1          11.7860    27.9630    85.5390 c6         1 3I2       0.210300
      2 C2          11.7620    27.7350    84.0270 c6         1 3I2       0.133300
      3 C3          10.3860    27.9810    83.4420 c6         1 3I2      -0.090400
      4 O2          12.7160    28.6040    83.3920 oh         1 3I2      -0.718000
      5 O26         11.4190    30.3130    89.6340 o          1 3I2      -0.947167
      6 O6          11.1270    29.3770    87.3500 os         1 3I2      -0.600400
      7 O36         10.4330    31.7850    87.7890 o          1 3I2      -0.947167
      8 O16         12.9080    31.1880    87.7320 o          1 3I2      -0.947167
      9 C4           9.8110    29.3460    83.8080 c6         1 3I2       0.244300
     10 C5           9.8120    29.5500    85.3220 c6         1 3I2       0.163300
     11 C6          11.2030    29.3230    85.9280 c6         1 3I2       0.205300
     12 O1          13.1270    27.8910    86.0040 os         1 3I2      -0.589400
     13 O4           8.4760    29.4540    83.3300 os         1 3I2      -0.620400
     14 O5           9.3220    30.8490    85.6110 oh         1 3I2      -0.760000
     15 P1          13.7470    26.4360    86.5970 p5         1 3I2       1.318900
     16 O11         12.7480    25.9590    87.6460 o          1 3I2      -0.964833
     17 O21         13.8540    25.5000    85.3950 o          1 3I2      -0.964833
     18 O31         15.0870    26.8970    87.1540 o          1 3I2      -0.964833
     19 P4           8.1550    30.2370    81.8810 p5         1 3I2       1.322900
     20 O14          8.6320    31.6770    82.0560 o          1 3I2      -0.969500
     21 O24          8.9240    29.4760    80.8020 o          1 3I2      -0.969500
     22 O34          6.6400    30.0860    81.7950 o          1 3I2      -0.969500
     23 H1          11.1830    27.1860    86.0200 h1         1 3I2       0.026700
     24 H2          12.0620    26.6980    83.8470 h1         1 3I2       0.012700
     25 H3           9.7090    27.2070    83.8170 hc         1 3I2       0.015700
     26 H4          10.4130    27.8880    82.3560 hc         1 3I2       0.015700
     27 H5          13.4920    28.5870    83.9720 ho         1 3I2       0.454000
     28 H8          10.4220    30.1380    83.3670 h1         1 3I2       0.040700
     29 H9           9.1390    28.7940    85.7600 h1         1 3I2      -0.020300
     30 H10         11.8790    30.1070    85.5700 h1         1 3I2       0.036700
     31 H11          9.7200    31.1840    86.4680 ho         1 3I2       0.510000
     32 P6          11.5200    30.7700    88.1910 p5         1 3I2       1.328900
@<TRIPOS>BOND
     1     1     2 1   
     2     1    11 1   
     3     1    12 1   
     4     1    23 1   
     5     2     3 1   
     6     2     4 1   
     7     2    24 1   
     8     3     9 1   
     9     3    25 1   
    10     3    26 1   
    11     4    27 1   
    12     5    32 1   
    13     6    11 1   
    14     6    32 1   
    15     7    32 1   
    16     8    32 1   
    17     9    10 1   
    18     9    13 1   
    19     9    28 1   
    20    10    11 1   
    21    10    14 1   
    22    10    29 1   
    23    11    30 1   
    24    12    15 1   
    25    13    19 1   
    26    14    31 1   
    27    15    16 1   
    28    15    17 1   
    29    15    18 1   
    30    19    20 1   
    31    19    21 1   
    32    19    22 1   
@<TRIPOS>SUBSTRUCTURE
     1 3I2         1 TEMP              0 ****  ****    0 ROOT
