@<TRIPOS>MOLECULE
3I2
   32    32     1     0     0
SMALL
No Charge or Current Charge


@<TRIPOS>ATOM
      1 C1          11.6000    27.9130    85.8390 c6         1 3I2       0.210300
      2 C2          11.6110    27.6840    84.2790 c6         1 3I2       0.133300
      3 C3          10.2560    28.0260    83.6170 c6         1 3I2      -0.090400
      4 O2          12.6830    28.3910    83.6410 oh         1 3I2      -0.718000
      5 O26         11.2430    30.9160    89.7390 o          1 3I2      -0.947167
      6 O6          11.0410    29.5610    87.6230 os         1 3I2      -0.600400
      7 O36         10.5960    32.0250    87.6810 o          1 3I2      -0.947167
      8 O16         12.8920    31.2720    87.9890 o          1 3I2      -0.947167
      9 C4           9.7830    29.4700    83.9400 c6         1 3I2       0.244300
     10 C5           9.7160    29.6780    85.5010 c6         1 3I2       0.163300
     11 C6          11.1050    29.3670    86.1810 c6         1 3I2       0.205300
     12 O1          12.8830    27.6470    86.4930 os         1 3I2      -0.589400
     13 O4           8.5040    29.7870    83.3220 os         1 3I2      -0.620400
     14 O5           9.1980    30.9900    85.8440 oh         1 3I2      -0.760000
     15 P1          13.9580    26.5520    85.9990 p5         1 3I2       1.318900
     16 O11         13.3030    25.2260    85.8420 o          1 3I2      -0.964833
     17 O21         14.5650    26.9920    84.7120 o          1 3I2      -0.964833
     18 O31         15.0320    26.4380    87.0230 o          1 3I2      -0.964833
     19 P4           8.3180    29.9160    81.7250 p5         1 3I2       1.322900
     20 O14          9.3900    30.7730    81.1480 o          1 3I2      -0.969500
     21 O24          8.3200    28.5780    81.0750 o          1 3I2      -0.969500
     22 O34          7.0020    30.5620    81.4610 o          1 3I2      -0.969500
     23 H1          10.8690    27.2090    86.2630 h1         1 3I2       0.026700
     24 H2          11.7610    26.6100    84.1030 h1         1 3I2       0.012700
     25 H3           9.4980    27.3090    83.9600 hc         1 3I2       0.015700
     26 H4          10.3580    27.8800    82.5350 hc         1 3I2       0.015700
     27 H5          13.5030    27.9210    84.0040 ho         1 3I2       0.454000
     28 H8          10.5330    30.1710    83.5430 h1         1 3I2       0.040700
     29 H9           9.0090    28.9300    85.8900 h1         1 3I2      -0.020300
     30 H10         11.8410    30.0710    85.7650 h1         1 3I2       0.036700
     31 H11          9.7800    31.3540    86.5960 ho         1 3I2       0.510000
     32 P6          11.4620    30.9710    88.2680 p5         1 3I2       1.328900
@<TRIPOS>BOND
     1     1     2 1   
     2     1    11 1   
     3     1    12 1   
     4     1    23 1   
     5     2     3 1   
     6     2     4 1   
     7     2    24 1   
     8     3     9 1   
     9     3    25 1   
    10     3    26 1   
    11     4    27 1   
    12     5    32 1   
    13     6    11 1   
    14     6    32 1   
    15     7    32 1   
    16     8    32 1   
    17     9    10 1   
    18     9    13 1   
    19     9    28 1   
    20    10    11 1   
    21    10    14 1   
    22    10    29 1   
    23    11    30 1   
    24    12    15 1   
    25    13    19 1   
    26    14    31 1   
    27    15    16 1   
    28    15    17 1   
    29    15    18 1   
    30    19    20 1   
    31    19    21 1   
    32    19    22 1   
@<TRIPOS>SUBSTRUCTURE
     1 3I2         1 TEMP              0 ****  ****    0 ROOT
