@<TRIPOS>MOLECULE
3I3
   50    53     1     0     0
SMALL
bcc


@<TRIPOS>ATOM
      1 C1          38.6270    31.1900   -41.8210 c3         1 3I3      -0.227300
      2 C5          38.3790    28.5320   -42.6510 ca         1 3I3      -0.290500
      3 C6          38.8430    27.5650   -41.7790 ca         1 3I3      -0.002000
      4 C7          39.6070    26.4950   -42.2510 ca         1 3I3      -0.184000
      5 C8          39.9280    26.3810   -43.5900 ca         1 3I3      -0.001000
      6 C11         38.9050    28.6750   -46.2090 cc         1 3I3      -0.050100
      7 C15         40.3810    26.6760   -46.8040 ca         1 3I3       0.662100
      8 C17         42.2650    25.3750   -46.9640 ca         1 3I3       0.939900
      9 C19         41.0050    25.5830   -48.8170 ca         1 3I3       0.532200
     10 C30         45.6890    25.4320   -42.9220 c6         1 3I3       0.155800
     11 C32         44.4600    26.3330   -44.7800 c6         1 3I3       0.140800
     12 S2          37.4340    29.8860   -42.0190 sy         1 3I3       1.099300
     13 O3          36.4760    30.2980   -43.0460 o          1 3I3      -0.602800
     14 O4          36.9290    29.5200   -40.7000 o          1 3I3      -0.602800
     15 C9          39.4760    27.3490   -44.4890 ca         1 3I3      -0.078800
     16 C10         39.5940    27.5260   -45.9140 cd         1 3I3      -0.240000
     17 N12         38.3710    29.2010   -45.0800 na         1 3I3      -0.157400
     18 C14         38.6880    28.4170   -44.0110 ca         1 3I3       0.018800
     19 N16         41.4650    26.1590   -46.2400 nb         1 3I3      -0.798000
     20 N18         42.0890    25.0900   -48.2660 nb         1 3I3      -0.781000
     21 C20         40.0740    26.3730   -48.1440 ca         1 3I3      -0.525900
     22 F22         38.6190    26.0770   -49.9560 f          1 3I3      -0.238633
     23 F23         37.7430    26.7300   -48.1110 f          1 3I3      -0.238633
     24 F24         38.9240    28.0900   -49.2880 f          1 3I3      -0.238633
     25 N25         43.3260    24.8240   -46.3650 nu         1 3I3      -0.855900
     26 C26         43.6970    25.0240   -44.9800 c6         1 3I3       0.243500
     27 C28         44.5430    23.8510   -44.4960 c6         1 3I3      -0.091400
     28 C29         44.9990    24.0840   -43.0590 c6         1 3I3      -0.072400
     29 N31         44.7960    26.4830   -43.3780 n7         1 3I3      -0.806200
     30 H1          39.3880    30.8770   -41.1110 h1         1 3I3       0.102033
     31 H2          39.0780    31.4180   -42.7850 h1         1 3I3       0.102033
     32 H3          38.0950    32.0630   -41.4440 h1         1 3I3       0.102033
     33 H4          38.6150    27.6330   -40.7240 ha         1 3I3       0.155000
     34 H5          39.9550    25.7480   -41.5500 ha         1 3I3       0.139000
     35 H6          40.5290    25.5520   -43.9340 ha         1 3I3       0.151000
     36 H7          38.7770    29.1960   -47.1430 h4         1 3I3       0.182000
     37 H8          40.8580    25.3310   -49.8610 h4         1 3I3       0.036100
     38 H9          46.6340    25.4080   -43.4900 h1         1 3I3       0.032200
     39 H10         45.9500    25.6180   -41.8780 h1         1 3I3       0.032200
     40 H11         45.3470    26.3180   -45.4360 h1         1 3I3       0.040700
     41 H12         43.8380    27.1740   -45.0910 h1         1 3I3       0.040700
     42 H13         37.8040    30.0340   -45.0510 hn         1 3I3       0.327700
     43 H14         43.9420    24.2850   -46.9550 hn         1 3I3       0.453800
     44 H15         42.7830    25.0670   -44.3820 h1         1 3I3       0.087700
     45 H16         43.9790    22.9190   -44.5780 hc         1 3I3       0.046200
     46 H17         45.4220    23.7540   -45.1450 hc         1 3I3       0.046200
     47 H18         44.1330    24.0540   -42.3910 hc         1 3I3       0.051700
     48 H19         45.6750    23.2850   -42.7460 hc         1 3I3       0.051700
     49 H20         45.2250    27.3870   -43.2290 hn         1 3I3       0.362800
     50 C21         38.8480    26.8140   -48.8620 c3         1 3I3       0.745200
@<TRIPOS>BOND
     1     1    12 1   
     2     1    30 1   
     3     1    31 1   
     4     1    32 1   
     5     2     3 ar  
     6     2    12 1   
     7     2    18 ar  
     8     3     4 ar  
     9     3    33 1   
    10     4     5 ar  
    11     4    34 1   
    12     5    15 ar  
    13     5    35 1   
    14     6    16 2   
    15     6    17 1   
    16     6    36 1   
    17     7    16 1   
    18     7    19 ar  
    19     7    21 ar  
    20     8    19 ar  
    21     8    20 ar  
    22     8    25 1   
    23     9    20 ar  
    24     9    21 ar  
    25     9    37 1   
    26    10    28 1   
    27    10    29 1   
    28    10    38 1   
    29    10    39 1   
    30    11    26 1   
    31    11    29 1   
    32    11    40 1   
    33    11    41 1   
    34    12    13 2   
    35    12    14 2   
    36    15    16 1   
    37    15    18 ar  
    38    17    18 1   
    39    17    42 1   
    40    21    50 1   
    41    22    50 1   
    42    23    50 1   
    43    24    50 1   
    44    25    26 1   
    45    25    43 1   
    46    26    27 1   
    47    26    44 1   
    48    27    28 1   
    49    27    45 1   
    50    27    46 1   
    51    28    47 1   
    52    28    48 1   
    53    29    49 1   
@<TRIPOS>SUBSTRUCTURE
     1 3I3         1 TEMP              0 ****  ****    0 ROOT
