@<TRIPOS>MOLECULE
3I3
   50    53     1     0     0
SMALL
No Charge or Current Charge


@<TRIPOS>ATOM
      1 C1          38.7370    31.1110   -41.5270 c3         1 3I3      -0.338100
      2 C5          38.2500    28.6100   -42.7250 ca         1 3I3      -0.290500
      3 C6          38.5820    27.5750   -41.8190 ca         1 3I3       0.016000
      4 C7          39.2610    26.4190   -42.2690 ca         1 3I3      -0.166000
      5 C8          39.6270    26.2820   -43.6240 ca         1 3I3       0.017000
      6 C11         38.9630    28.7300   -46.3270 cc         1 3I3      -0.100100
      7 C15         40.2850    26.5740   -46.7790 ca         1 3I3       0.333800
      8 C17         42.1760    25.2720   -46.9180 ca         1 3I3       0.413900
      9 C19         40.9640    25.5030   -48.8290 ca         1 3I3       0.203900
     10 C30         45.9190    25.5310   -42.9850 c6         1 3I3       0.155800
     11 C32         44.3840    26.3600   -44.7420 c6         1 3I3       0.140800
     12 S2          37.3960    30.0860   -42.1290 sy         1 3I3       1.068500
     13 O3          36.8050    30.7980   -43.2700 o          1 3I3      -0.532000
     14 O4          36.5910    29.7250   -40.9550 o          1 3I3      -0.532000
     15 C9          39.3020    27.3310   -44.5000 ca         1 3I3      -0.078800
     16 C10         39.5110    27.5130   -45.9300 cd         1 3I3      -0.240000
     17 N12         38.4130    29.2820   -45.1530 na         1 3I3      -0.207700
     18 C14         38.6280    28.4440   -44.0720 ca         1 3I3       0.018800
     19 N16         41.3680    26.0440   -46.1800 nb         1 3I3      -0.272000
     20 N18         42.0340    24.9750   -48.2130 nb         1 3I3      -0.255000
     21 C20         40.0350    26.3220   -48.1560 ca         1 3I3      -0.395300
     22 F22         38.5080    26.0250   -49.9730 f          1 3I3      -0.117333
     23 F23         37.6900    26.8480   -48.1550 f          1 3I3      -0.117333
     24 F24         38.9940    28.0590   -49.4170 f          1 3I3      -0.117333
     25 N25         43.2840    24.7090   -46.3000 nu         1 3I3      -0.911100
     26 C26         43.7230    24.9490   -44.9070 c6         1 3I3       0.243500
     27 C28         44.7280    23.8430   -44.4950 c6         1 3I3      -0.091400
     28 C29         45.2930    24.1170   -43.0770 c6         1 3I3      -0.072400
     29 N31         44.9450    26.5780   -43.3760 n7         1 3I3      -0.861400
     30 H1          39.2540    30.5650   -40.7320 h1         1 3I3       0.102033
     31 H2          39.4150    31.3100   -42.3640 h1         1 3I3       0.102033
     32 H3          38.3080    32.0420   -41.1440 h1         1 3I3       0.102033
     33 H4          38.3160    27.6580   -40.7660 ha         1 3I3       0.137000
     34 H5          39.5020    25.6270   -41.5640 ha         1 3I3       0.121000
     35 H6          40.1350    25.3860   -43.9670 ha         1 3I3       0.133000
     36 H7          38.9450    29.2460   -47.2820 h4         1 3I3       0.232000
     37 H8          40.8530    25.2520   -49.8830 h4         1 3I3       0.036100
     38 H9          46.7970    25.5850   -43.6460 h1         1 3I3       0.032200
     39 H10         46.2640    25.7160   -41.9570 h1         1 3I3       0.032200
     40 H11         45.1910    26.4670   -45.4820 h1         1 3I3       0.040700
     41 H12         43.6400    27.1410   -44.9550 h1         1 3I3       0.040700
     42 H13         37.9130    30.1650   -45.0990 hn         1 3I3       0.378000
     43 H14         43.8700    24.1320   -46.9050 hn         1 3I3       0.509000
     44 H15         42.8630    24.8900   -44.2200 h1         1 3I3       0.087700
     45 H16         44.2380    22.8600   -44.5170 hc         1 3I3       0.046200
     46 H17         45.5580    23.8010   -45.2140 hc         1 3I3       0.046200
     47 H18         44.4910    24.0210   -42.3320 hc         1 3I3       0.051700
     48 H19         46.0470    23.3600   -42.8220 hc         1 3I3       0.051700
     49 H20         45.4100    27.4950   -43.3460 hn         1 3I3       0.418000
     50 C21         38.8050    26.8180   -48.9180 c3         1 3I3       0.381300
@<TRIPOS>BOND
     1     1    12 1   
     2     1    30 1   
     3     1    31 1   
     4     1    32 1   
     5     2     3 ar  
     6     2    12 1   
     7     2    18 ar  
     8     3     4 ar  
     9     3    33 1   
    10     4     5 ar  
    11     4    34 1   
    12     5    15 ar  
    13     5    35 1   
    14     6    16 2   
    15     6    17 1   
    16     6    36 1   
    17     7    16 1   
    18     7    19 ar  
    19     7    21 ar  
    20     8    19 ar  
    21     8    20 ar  
    22     8    25 1   
    23     9    20 ar  
    24     9    21 ar  
    25     9    37 1   
    26    10    28 1   
    27    10    29 1   
    28    10    38 1   
    29    10    39 1   
    30    11    26 1   
    31    11    29 1   
    32    11    40 1   
    33    11    41 1   
    34    12    13 2   
    35    12    14 2   
    36    15    16 1   
    37    15    18 ar  
    38    17    18 1   
    39    17    42 1   
    40    21    50 1   
    41    22    50 1   
    42    23    50 1   
    43    24    50 1   
    44    25    26 1   
    45    25    43 1   
    46    26    27 1   
    47    26    44 1   
    48    27    28 1   
    49    27    45 1   
    50    27    46 1   
    51    28    47 1   
    52    28    48 1   
    53    29    49 1   
@<TRIPOS>SUBSTRUCTURE
     1 3I3         1 TEMP              0 ****  ****    0 ROOT
