@<TRIPOS>MOLECULE
3I4
   41    41     1     0     0
SMALL
No Charge or Current Charge


@<TRIPOS>ATOM
      1 C1          -1.9860    12.2040    11.8280 c          1 3I4       0.608100
      2 C2          -0.9430    11.4160    12.6740 c3         1 3I4       0.025700
      3 C3           0.2760    10.9330    11.8440 c3         1 3I4       0.153600
      4 C5          -1.8530     8.6050    15.2180 c3         1 3I4       0.035800
      5 C6          -3.2390     5.4280    13.8560 c3         1 3I4       0.202900
      6 C11         -5.9250     3.3620    15.6630 ca         1 3I4      -0.010500
      7 N1          -3.2560    12.2260    12.3000 nt         1 3I4      -0.590000
      8 O1          -1.7290    12.7810    10.7820 o          1 3I4      -0.611100
      9 O2          -0.0950     9.8580    10.9620 oh         1 3I4      -0.670000
     10 N2          -1.5690    10.3140    13.4580 ns         1 3I4      -0.509900
     11 O3          -0.1340    10.3420    15.2270 o          1 3I4      -0.586100
     12 N3          -2.0050     7.4890    14.2350 n7         1 3I4      -0.630900
     13 O4          -2.6880     6.3500    14.8180 os         1 3I4      -0.264300
     14 C7          -3.9300     4.2930    14.6030 ca         1 3I4      -0.040300
     15 C8          -3.2220     3.1190    14.9260 ca         1 3I4      -0.114000
     16 C9          -3.8570     2.0700    15.6130 ca         1 3I4      -0.010500
     17 C10         -5.2130     2.1870    15.9850 ca         1 3I4      -0.265500
     18 S1          -6.0230     0.8450    16.8610 sy         1 3I4       1.126600
     19 N4          -6.5310    -0.1030    15.6280 n8         1 3I4      -1.007100
     20 O5          -5.0410     0.0350    17.5830 o          1 3I4      -0.542500
     21 O6          -7.2640     1.3190    17.4690 o          1 3I4      -0.542500
     22 C12         -5.2830     4.4070    14.9760 ca         1 3I4      -0.114000
     23 H1          -0.5680    12.1550    13.3930 h1         1 3I4       0.103700
     24 H2           1.0580    10.5940    12.5380 h1         1 3I4       0.042700
     25 H3           0.6910    11.7770    11.2760 h1         1 3I4       0.042700
     26 H4          -2.8390     8.9640    15.5380 h1         1 3I4       0.081200
     27 H5          -1.3150     8.2660    16.1130 h1         1 3I4       0.081200
     28 H6          -2.4480     5.0180    13.2160 h1         1 3I4       0.045700
     29 H7          -3.9660     5.9360    13.2100 h1         1 3I4       0.045700
     30 H9          -3.9670    12.7230    11.7840 hn         1 3I4       0.316000
     31 H10         -3.4760    11.7710    13.1730 hn         1 3I4       0.316000
     32 H11          0.7180     9.5910    10.4760 ho         1 3I4       0.452000
     33 H12         -2.2960     9.7550    13.0220 hn         1 3I4       0.344500
     34 H13         -1.0630     7.1390    13.9930 hn         1 3I4       0.422000
     35 H14         -2.1760     3.0190    14.6460 ha         1 3I4       0.122000
     36 H15         -3.2930     1.1690    15.8530 ha         1 3I4       0.139000
     37 H16         -7.5130    -0.2190    15.8680 hn         1 3I4       0.475000
     38 H17         -6.5470     0.5480    14.8470 hn         1 3I4       0.475000
     39 H18         -5.8390     5.3100    14.7360 ha         1 3I4       0.122000
     40 C4          -1.0910     9.8330    14.6570 c          1 3I4       0.593100
     41 H8          -6.9710     3.4730    15.9440 ha         1 3I4       0.139000
@<TRIPOS>BOND
     1     1     2 1   
     2     1     7 1   
     3     1     8 2   
     4     2     3 1   
     5     2    10 1   
     6     2    23 1   
     7     3     9 1   
     8     3    24 1   
     9     3    25 1   
    10     4    12 1   
    11     4    26 1   
    12     4    27 1   
    13     4    40 1   
    14     5    13 1   
    15     5    14 1   
    16     5    28 1   
    17     5    29 1   
    18     6    17 ar  
    19     6    22 ar  
    20     6    41 1   
    21     7    30 1   
    22     7    31 1   
    23     9    32 1   
    24    10    33 1   
    25    10    40 1   
    26    11    40 2   
    27    12    13 1   
    28    12    34 1   
    29    14    15 ar  
    30    14    22 ar  
    31    15    16 ar  
    32    15    35 1   
    33    16    17 ar  
    34    16    36 1   
    35    17    18 1   
    36    18    19 1   
    37    18    20 2   
    38    18    21 2   
    39    19    37 1   
    40    19    38 1   
    41    22    39 1   
@<TRIPOS>SUBSTRUCTURE
     1 3I4         1 TEMP              0 ****  ****    0 ROOT
