@<TRIPOS>MOLECULE
3I4
   41    41     1     0     0
SMALL
abcg2


@<TRIPOS>ATOM
      1 C1          -1.7330    12.0350    12.2610 c          1 3I4       0.608100
      2 C2          -0.6920    10.9950    12.6880 c3         1 3I4       0.025700
      3 C3           0.0780    10.5150    11.4690 c3         1 3I4       0.153600
      4 C5          -1.9740     8.6140    15.3450 c3         1 3I4       0.035800
      5 C6          -3.4280     5.9270    14.0910 c3         1 3I4       0.202900
      6 C11         -6.0750     3.5610    15.4350 ca         1 3I4      -0.010500
      7 N1          -3.0160    11.7070    12.4370 nt         1 3I4      -0.590000
      8 O1          -1.3600    13.0980    11.7890 o          1 3I4      -0.611100
      9 O2          -0.8310     9.8600    10.6180 oh         1 3I4      -0.670000
     10 N2          -1.2340     9.8720    13.4100 ns         1 3I4      -0.509900
     11 O3          -1.1840    10.8640    15.4390 o          1 3I4      -0.586100
     12 N3          -1.7520     7.4610    14.4930 n7         1 3I4      -0.630900
     13 O4          -2.4590     6.3700    15.0230 os         1 3I4      -0.264300
     14 C7          -4.0890     4.7170    14.6870 ca         1 3I4      -0.040300
     15 C8          -3.3190     3.6140    15.0620 ca         1 3I4      -0.114000
     16 C9          -3.9100     2.5020    15.6280 ca         1 3I4      -0.010500
     17 C10         -5.2900     2.4840    15.8080 ca         1 3I4      -0.265500
     18 S1          -6.0290     1.0820    16.5990 sy         1 3I4       1.126600
     19 N4          -5.7370    -0.1060    15.4880 n8         1 3I4      -1.007100
     20 O5          -5.2440     0.7310    17.7730 o          1 3I4      -0.542500
     21 O6          -7.4470     1.3590    16.7740 o          1 3I4      -0.542500
     22 C12         -5.4630     4.6780    14.8780 ca         1 3I4      -0.114000
     23 H1           0.0130    11.5200    13.3360 h1         1 3I4       0.103700
     24 H2           0.8820     9.8500    11.8040 h1         1 3I4       0.042700
     25 H3           0.5480    11.3800    10.9900 h1         1 3I4       0.042700
     26 H4          -3.0530     8.7640    15.4450 h1         1 3I4       0.081200
     27 H5          -1.5650     8.5080    16.3550 h1         1 3I4       0.081200
     28 H6          -2.9520     5.6660    13.1400 h1         1 3I4       0.045700
     29 H7          -4.1700     6.7060    13.8890 h1         1 3I4       0.045700
     30 H9          -3.7430    12.3440    12.1550 hn         1 3I4       0.316000
     31 H10         -3.2950    10.8090    12.7920 hn         1 3I4       0.316000
     32 H11         -0.3400     9.4410     9.9050 ho         1 3I4       0.452000
     33 H12         -1.4590     9.0220    12.9110 hn         1 3I4       0.344500
     34 H13         -0.7760     7.1830    14.5470 hn         1 3I4       0.422000
     35 H14         -2.2470     3.6240    14.9150 ha         1 3I4       0.122000
     36 H15         -3.3010     1.6550    15.9160 ha         1 3I4       0.139000
     37 H16         -5.7960    -1.0310    15.9040 hn         1 3I4       0.475000
     38 H17         -6.3400    -0.0430    14.6740 hn         1 3I4       0.475000
     39 H18         -6.0720     5.5290    14.5980 ha         1 3I4       0.122000
     40 C4          -1.4110     9.8890    14.7430 c          1 3I4       0.593100
     41 H8          -7.1470     3.5470    15.5770 ha         1 3I4       0.139000
@<TRIPOS>BOND
     1     1     2 1   
     2     1     7 1   
     3     1     8 2   
     4     2     3 1   
     5     2    10 1   
     6     2    23 1   
     7     3     9 1   
     8     3    24 1   
     9     3    25 1   
    10     4    12 1   
    11     4    26 1   
    12     4    27 1   
    13     4    40 1   
    14     5    13 1   
    15     5    14 1   
    16     5    28 1   
    17     5    29 1   
    18     6    17 ar  
    19     6    22 ar  
    20     6    41 1   
    21     7    30 1   
    22     7    31 1   
    23     9    32 1   
    24    10    33 1   
    25    10    40 1   
    26    11    40 2   
    27    12    13 1   
    28    12    34 1   
    29    14    15 ar  
    30    14    22 ar  
    31    15    16 ar  
    32    15    35 1   
    33    16    17 ar  
    34    16    36 1   
    35    17    18 1   
    36    18    19 1   
    37    18    20 2   
    38    18    21 2   
    39    19    37 1   
    40    19    38 1   
    41    22    39 1   
@<TRIPOS>SUBSTRUCTURE
     1 3I4         1 TEMP              0 ****  ****    0 ROOT
