@<TRIPOS>MOLECULE
3I5
   38    41     1     0     0
SMALL
abcg2


@<TRIPOS>ATOM
      1 C02         -6.1820    23.2010    15.1370 c          1 3I5       0.561000
      2 C04         -4.6270    22.7630    17.0000 c5         1 3I5       0.023700
      3 C05         -4.9680    22.3240    18.4170 c5         1 3I5      -0.073400
      4 C06         -6.1280    23.2500    18.7740 c5         1 3I5      -0.099400
      5 C07         -6.9300    23.3510    17.4780 c5         1 3I5       0.104000
      6 C08         -3.9160    21.7280    16.1560 c          1 3I5       0.561000
      7 C10         -4.9810    22.8800    14.2540 c6         1 3I5       0.038700
      8 C11         -5.4030    22.4880    12.8370 c3         1 3I5      -0.000200
      9 C12         -4.2310    22.1860    11.9640 cc         1 3I5      -0.165400
     10 C13         -3.8340    20.9550    11.5130 cd         1 3I5      -0.147100
     11 C15         -2.3290    22.3800    10.7070 ca         1 3I5      -0.066200
     12 C16         -1.2550    22.9910    10.0650 ca         1 3I5      -0.096000
     13 C17         -1.1280    24.3610    10.1780 ca         1 3I5      -0.129000
     14 C18         -2.0650    25.0850    10.9200 ca         1 3I5       0.143000
     15 C20         -3.1320    24.5090    11.5620 ca         1 3I5      -0.108000
     16 C21         -3.2710    23.1190    11.4570 ca         1 3I5      -0.072800
     17 F19         -1.9010    26.4220    11.0020 f          1 3I5      -0.184000
     18 N03         -5.9270    23.1170    16.4450 n          1 3I5      -0.410800
     19 N09         -4.2040    21.8090    14.8490 ns         1 3I5      -0.498900
     20 N14         -2.7030    21.0690    10.7630 na         1 3I5      -0.214700
     21 O01         -7.2690    23.5230    14.6830 o          1 3I5      -0.554000
     22 O22         -3.1450    20.9160    16.6380 o          1 3I5      -0.551000
     23 H1          -3.9780    23.6510    17.0330 h1         1 3I5       0.071700
     24 H2          -5.2940    21.2820    18.4200 hc         1 3I5       0.068700
     25 H3          -4.1200    22.4170    19.0930 hc         1 3I5       0.068700
     26 H4          -5.7480    24.2330    19.0570 hc         1 3I5       0.056200
     27 H5          -6.7290    22.8760    19.6000 hc         1 3I5       0.056200
     28 H6          -7.4040    24.3250    17.3520 h1         1 3I5       0.058700
     29 H7          -7.7110    22.5890    17.4220 h1         1 3I5       0.058700
     30 H8          -4.3750    23.7960    14.1980 h1         1 3I5       0.066700
     31 H9          -5.9850    23.3110    12.4170 hc         1 3I5       0.073200
     32 H10         -6.0650    21.6210    12.8830 hc         1 3I5       0.073200
     33 H11         -4.2950    19.9920    11.6740 h4         1 3I5       0.218000
     34 H12         -0.5370    22.4160     9.4940 ha         1 3I5       0.120000
     35 H13         -0.3080    24.8790     9.6980 ha         1 3I5       0.132000
     36 H14         -3.8350    25.1130    12.1230 ha         1 3I5       0.134000
     37 H15         -3.6840    21.2130    14.2170 hn         1 3I5       0.329500
     38 H16         -2.2250    20.3040    10.3150 hn         1 3I5       0.356000
@<TRIPOS>BOND
     1     1     7 1   
     2     1    18 1   
     3     1    21 2   
     4     2     3 1   
     5     2     6 1   
     6     2    18 1   
     7     2    23 1   
     8     3     4 1   
     9     3    24 1   
    10     3    25 1   
    11     4     5 1   
    12     4    26 1   
    13     4    27 1   
    14     5    18 1   
    15     5    28 1   
    16     5    29 1   
    17     6    19 1   
    18     6    22 2   
    19     7     8 1   
    20     7    19 1   
    21     7    30 1   
    22     8     9 1   
    23     8    31 1   
    24     8    32 1   
    25     9    10 2   
    26     9    16 1   
    27    10    20 1   
    28    10    33 1   
    29    11    12 ar  
    30    11    16 ar  
    31    11    20 1   
    32    12    13 ar  
    33    12    34 1   
    34    13    14 ar  
    35    13    35 1   
    36    14    15 ar  
    37    14    17 1   
    38    15    16 ar  
    39    15    36 1   
    40    19    37 1   
    41    20    38 1   
@<TRIPOS>SUBSTRUCTURE
     1 3I5         1 TEMP              0 ****  ****    0 ROOT
