@<TRIPOS>MOLECULE
3I5
   38    41     1     0     0
SMALL
No Charge or Current Charge


@<TRIPOS>ATOM
      1 C02         -6.1530    23.3780    15.1510 c          1 3I5       0.561000
      2 C04         -4.6230    22.8830    17.1020 c5         1 3I5       0.023700
      3 C05         -5.0600    22.1930    18.4230 c5         1 3I5      -0.073400
      4 C06         -6.2370    23.1110    18.8580 c5         1 3I5      -0.099400
      5 C07         -7.0320    23.2840    17.5330 c5         1 3I5       0.104000
      6 C08         -3.6920    21.9680    16.2310 c          1 3I5       0.561000
      7 C10         -4.9310    23.0170    14.2570 c6         1 3I5       0.038700
      8 C11         -5.3720    22.5610    12.8370 c3         1 3I5      -0.000200
      9 C12         -4.2220    22.1840    11.9380 cc         1 3I5      -0.165400
     10 C13         -3.8790    20.9090    11.4950 cd         1 3I5      -0.147100
     11 C15         -2.3610    22.3170    10.6550 ca         1 3I5      -0.066200
     12 C16         -1.2740    22.8980     9.9840 ca         1 3I5      -0.096000
     13 C17         -1.1070    24.2970    10.0800 ca         1 3I5      -0.129000
     14 C18         -2.0200    25.0710    10.8320 ca         1 3I5       0.143000
     15 C20         -3.1030    24.4620    11.4960 ca         1 3I5      -0.108000
     16 C21         -3.2380    23.0700    11.3840 ca         1 3I5      -0.072800
     17 F19         -1.8530    26.4090    10.9140 f          1 3I5      -0.184000
     18 N03         -5.9540    23.2060    16.5280 n          1 3I5      -0.410800
     19 N09         -4.0350    22.0140    14.8940 ns         1 3I5      -0.498900
     20 N14         -2.7150    20.9810    10.6930 na         1 3I5      -0.214700
     21 O01         -7.2410    23.7130    14.6990 o          1 3I5      -0.554000
     22 O22         -2.8190    21.2150    16.6350 o          1 3I5      -0.551000
     23 H1          -4.0720    23.8110    17.3000 h1         1 3I5       0.071700
     24 H2          -5.3990    21.1640    18.2490 hc         1 3I5       0.068700
     25 H3          -4.2540    22.1550    19.1650 hc         1 3I5       0.068700
     26 H4          -5.8670    24.0770    19.2210 hc         1 3I5       0.056200
     27 H5          -6.8460    22.6740    19.6570 hc         1 3I5       0.056200
     28 H6          -7.5720    24.2390    17.4950 h1         1 3I5       0.058700
     29 H7          -7.7530    22.4680    17.3880 h1         1 3I5       0.058700
     30 H8          -4.3540    23.9470    14.1580 h1         1 3I5       0.066700
     31 H9          -5.9510    23.3580    12.3540 hc         1 3I5       0.073200
     32 H10         -6.0550    21.7070    12.9250 hc         1 3I5       0.073200
     33 H11         -4.3740    19.9610    11.6970 h4         1 3I5       0.218000
     34 H12         -0.5810    22.2910     9.4060 ha         1 3I5       0.120000
     35 H13         -0.2770    24.7820     9.5730 ha         1 3I5       0.132000
     36 H14         -3.8080    25.0560    12.0700 ha         1 3I5       0.134000
     37 H15         -3.5020    21.4060    14.2840 hn         1 3I5       0.329500
     38 H16         -2.2370    20.2080    10.2370 hn         1 3I5       0.356000
@<TRIPOS>BOND
     1     1     7 1   
     2     1    18 1   
     3     1    21 2   
     4     2     3 1   
     5     2     6 1   
     6     2    18 1   
     7     2    23 1   
     8     3     4 1   
     9     3    24 1   
    10     3    25 1   
    11     4     5 1   
    12     4    26 1   
    13     4    27 1   
    14     5    18 1   
    15     5    28 1   
    16     5    29 1   
    17     6    19 1   
    18     6    22 2   
    19     7     8 1   
    20     7    19 1   
    21     7    30 1   
    22     8     9 1   
    23     8    31 1   
    24     8    32 1   
    25     9    10 2   
    26     9    16 1   
    27    10    20 1   
    28    10    33 1   
    29    11    12 ar  
    30    11    16 ar  
    31    11    20 1   
    32    12    13 ar  
    33    12    34 1   
    34    13    14 ar  
    35    13    35 1   
    36    14    15 ar  
    37    14    17 1   
    38    15    16 ar  
    39    15    36 1   
    40    19    37 1   
    41    20    38 1   
@<TRIPOS>SUBSTRUCTURE
     1 3I5         1 TEMP              0 ****  ****    0 ROOT
