@<TRIPOS>MOLECULE
3I6
   39    40     1     0     0
SMALL
abcg2


@<TRIPOS>ATOM
      1 O15          6.5000     2.1370     0.2130 oh         1 3I6      -0.667000
      2 C14          5.3830     2.7810     0.7860 c3         1 3I6       0.145600
      3 C13          4.1250     2.3060     0.0820 c3         1 3I6       0.240500
      4 C15          4.0910     2.6840    -1.3950 c3         1 3I6      -0.108100
      5 N9           4.0020     0.8690     0.2690 nu         1 3I6      -0.910100
      6 C9           2.8410     0.2120     0.2590 ca         1 3I6       0.455900
      7 N10          1.7150     0.9130     0.1720 nb         1 3I6      -0.341000
      8 C8           2.7560    -1.2050     0.3510 ca         1 3I6      -0.255900
      9 BR1          4.2880    -2.2860     0.4820 br         1 3I6      -0.075100
     10 C7           1.5060    -1.7630     0.3440 ca         1 3I6       0.203900
     11 N12          0.3850    -1.0460     0.2580 nb         1 3I6      -0.264000
     12 C11          0.5560     0.2640     0.1790 ca         1 3I6       0.433900
     13 N1          -0.5300     1.0920     0.0850 nu         1 3I6      -0.926900
     14 C2          -1.8830     0.8330     0.0430 ca         1 3I6       0.381000
     15 C3          -2.4610    -0.4420     0.1310 ca         1 3I6      -0.185000
     16 C4          -3.8340    -0.5830     0.0690 ca         1 3I6       0.025000
     17 C1          -2.7260     1.9450    -0.1010 ca         1 3I6      -0.185000
     18 C6          -4.0960     1.7990    -0.1640 ca         1 3I6       0.025000
     19 C5          -4.6530     0.5290    -0.0790 ca         1 3I6      -0.321500
     20 S1          -6.3940     0.3120    -0.1910 sy         1 3I6       1.132600
     21 O2          -6.9760     1.5720    -0.6400 o          1 3I6      -0.548500
     22 O3          -6.6930    -0.8910    -0.9560 o          1 3I6      -0.548500
     23 N4          -6.7830    -0.0520     1.3750 n8         1 3I6      -1.000100
     24 H15          7.2620     2.2930     0.7770 ho         1 3I6       0.450000
     25 H141         5.2980     2.5600     1.8570 h1         1 3I6       0.033700
     26 H142         5.4430     3.8720     0.6820 h1         1 3I6       0.033700
     27 H13          3.2820     2.7810     0.5870 h1         1 3I6       0.079700
     28 H151         4.9090     2.2210    -1.9460 hc         1 3I6       0.048700
     29 H152         3.1510     2.3690    -1.8480 hc         1 3I6       0.048700
     30 H153         4.1710     3.7660    -1.5120 hc         1 3I6       0.048700
     31 H9           4.8600     0.3400     0.2320 hn         1 3I6       0.521000
     32 H7           1.3830    -2.8390     0.4090 h4         1 3I6       0.036100
     33 H1          -0.2740     2.0660     0.0190 hn         1 3I6       0.511000
     34 H3          -1.8390    -1.3140     0.2410 ha         1 3I6       0.137000
     35 HA          -2.2980     2.9370    -0.1720 ha         1 3I6       0.137000
     36 H4          -4.2580    -1.5770     0.1360 ha         1 3I6       0.136000
     37 H6          -4.7170     2.6750    -0.2830 ha         1 3I6       0.136000
     38 H41N        -6.6990     0.7480     1.9940 hn         1 3I6       0.469500
     39 H42N        -7.7180    -0.4450     1.4410 hn         1 3I6       0.469500
@<TRIPOS>BOND
     1     1     2 1   
     2     1    24 1   
     3     2     3 1   
     4     2    25 1   
     5     2    26 1   
     6     3     4 1   
     7     3     5 1   
     8     3    27 1   
     9     4    28 1   
    10     4    29 1   
    11     4    30 1   
    12     5     6 1   
    13     5    31 1   
    14     6     7 ar  
    15     6     8 ar  
    16     7    12 ar  
    17     8     9 1   
    18     8    10 ar  
    19    10    11 ar  
    20    10    32 1   
    21    11    12 ar  
    22    12    13 1   
    23    13    14 1   
    24    13    33 1   
    25    14    15 ar  
    26    14    17 ar  
    27    15    16 ar  
    28    15    34 1   
    29    16    19 ar  
    30    16    36 1   
    31    17    18 ar  
    32    17    35 1   
    33    18    19 ar  
    34    18    37 1   
    35    19    20 1   
    36    20    21 2   
    37    20    22 2   
    38    20    23 1   
    39    23    38 1   
    40    23    39 1   
@<TRIPOS>SUBSTRUCTURE
     1 3I6         1 TEMP              0 ****  ****    0 ROOT
