@<TRIPOS>MOLECULE
3I6
   39    40     1     0     0
SMALL
No Charge or Current Charge


@<TRIPOS>ATOM
      1 O15          6.6580     1.9690     0.4200 oh         1 3I6      -0.667000
      2 C14          5.5730     2.7460     0.9720 c3         1 3I6       0.145600
      3 C13          4.2050     2.3930     0.3060 c3         1 3I6       0.240500
      4 C15          4.1210     2.8790    -1.1580 c3         1 3I6      -0.108100
      5 N9           3.9800     0.9360     0.3590 nu         1 3I6      -0.910100
      6 C9           2.7960     0.2420     0.1690 ca         1 3I6       0.455900
      7 N10          1.6510     0.9380     0.2250 nb         1 3I6      -0.341000
      8 C8           2.8110    -1.1390    -0.0720 ca         1 3I6      -0.255900
      9 Br1          4.4410    -2.1520    -0.1580 br         1 3I6      -0.075100
     10 C7           1.5720    -1.7690    -0.2600 ca         1 3I6       0.203900
     11 N12          0.4200    -1.0760    -0.2060 nb         1 3I6      -0.264000
     12 C11          0.5230     0.2400     0.0450 ca         1 3I6       0.433900
     13 N1          -0.6270     1.0080     0.0790 nu         1 3I6      -0.926900
     14 C2          -1.9960     0.7310     0.0480 ca         1 3I6       0.381000
     15 C3          -2.5290    -0.4800     0.5210 ca         1 3I6      -0.185000
     16 C4          -3.9140    -0.7130     0.4860 ca         1 3I6       0.025000
     17 C1          -2.8650     1.7190    -0.4370 ca         1 3I6      -0.185000
     18 C6          -4.2520     1.4990    -0.4790 ca         1 3I6       0.025000
     19 C5          -4.7800     0.2760    -0.0180 ca         1 3I6      -0.321500
     20 S1          -6.5450    -0.0220    -0.0640 sy         1 3I6       1.132600
     21 O2          -7.1940     0.9480    -0.9420 o          1 3I6      -0.548500
     22 O3          -6.8220    -1.4570    -0.1170 o          1 3I6      -0.548500
     23 N4          -6.9920     0.4460     1.4360 n8         1 3I6      -1.000100
     24 H15          7.4790     2.2520     0.8810 ho         1 3I6       0.450000
     25 H141         5.4920     2.5560     2.0510 h1         1 3I6       0.033700
     26 H142         5.7650     3.8200     0.8450 h1         1 3I6       0.033700
     27 H13          3.4250     2.9110     0.8830 h1         1 3I6       0.079700
     28 H151         4.8740     2.3820    -1.7820 hc         1 3I6       0.048700
     29 H152         3.1320     2.6720    -1.5830 hc         1 3I6       0.048700
     30 H153         4.2910     3.9610    -1.2110 hc         1 3I6       0.048700
     31 H9           4.8250     0.3650     0.3000 hn         1 3I6       0.521000
     32 H7           1.4980    -2.8380    -0.4580 h4         1 3I6       0.036100
     33 H1          -0.4150     2.0030     0.0460 hn         1 3I6       0.511000
     34 H3          -1.8810    -1.2430     0.9360 ha         1 3I6       0.137000
     35 HA          -2.4670     2.6640    -0.7960 ha         1 3I6       0.137000
     36 H4          -4.3080    -1.6590     0.8580 ha         1 3I6       0.136000
     37 H6          -4.9050     2.2780    -0.8690 ha         1 3I6       0.136000
     38 H41N        -6.2220     1.0500     1.7110 hn         1 3I6       0.469500
     39 H42N        -7.7450     1.0940     1.2180 hn         1 3I6       0.469500
@<TRIPOS>BOND
     1     1     2 1   
     2     1    24 1   
     3     2     3 1   
     4     2    25 1   
     5     2    26 1   
     6     3     4 1   
     7     3     5 1   
     8     3    27 1   
     9     4    28 1   
    10     4    29 1   
    11     4    30 1   
    12     5     6 1   
    13     5    31 1   
    14     6     7 ar  
    15     6     8 ar  
    16     7    12 ar  
    17     8     9 1   
    18     8    10 ar  
    19    10    11 ar  
    20    10    32 1   
    21    11    12 ar  
    22    12    13 1   
    23    13    14 1   
    24    13    33 1   
    25    14    15 ar  
    26    14    17 ar  
    27    15    16 ar  
    28    15    34 1   
    29    16    19 ar  
    30    16    36 1   
    31    17    18 ar  
    32    17    35 1   
    33    18    19 ar  
    34    18    37 1   
    35    19    20 1   
    36    20    21 2   
    37    20    22 2   
    38    20    23 1   
    39    23    38 1   
    40    23    39 1   
@<TRIPOS>SUBSTRUCTURE
     1 3I6         1 TEMP              0 ****  ****    0 ROOT
