@<TRIPOS>MOLECULE
3I7
   46    48     1     0     0
SMALL
No Charge or Current Charge


@<TRIPOS>ATOM
      1 N1           1.0480     6.6240    -0.1750 nz         1 3I7      -0.972000
      2 C2           1.7950     5.3150    -0.1530 c3         1 3I7       0.099600
      3 C3           0.8240     4.1310    -0.0270 c3         1 3I7      -0.115400
      4 C4           1.5490     2.7740    -0.0000 c3         1 3I7       0.179600
      5 O5           0.5440     1.7540     0.1220 os         1 3I7      -0.331100
      6 C6           0.8400     0.4050     0.1880 ca         1 3I7       0.179100
      7 C7           2.1770    -0.0480     0.0950 ca         1 3I7      -0.211000
      8 C8           2.4890    -1.4190     0.1210 ca         1 3I7       0.095000
      9 C9           1.4350    -2.3420     0.2420 ca         1 3I7      -0.145000
     10 C10          0.1040    -1.9090     0.3350 ca         1 3I7      -0.042000
     11 C11         -0.2170    -0.5300     0.3130 ca         1 3I7      -0.193600
     12 C12         -1.6660    -0.0840     0.4270 c          1 3I7       0.633700
     13 O13         -1.9850     1.0100     0.8820 o          1 3I7      -0.578100
     14 N14         -2.6000    -1.0400     0.0410 ns         1 3I7      -0.144000
     15 C15         -4.0230    -1.0350    -0.0030 ca         1 3I7      -0.028000
     16 C16         -4.8100     0.1180     0.2120 ca         1 3I7      -0.149500
     17 C17         -6.2130     0.0440     0.1470 ca         1 3I7      -0.082000
     18 C18         -6.8430    -1.1780    -0.1370 ca         1 3I7      -0.128000
     19 C19         -6.0690    -2.3280    -0.3590 ca         1 3I7      -0.082000
     20 C20         -4.6670    -2.2540    -0.2930 ca         1 3I7      -0.149500
     21 C21          3.8900    -1.8510     0.0220 cc         1 3I7      -0.189000
     22 C22          5.0650    -1.0890    -0.1010 cc         1 3I7       0.254900
     23 N23          6.1640    -1.8130    -0.1650 nd         1 3I7      -0.506800
     24 N24          5.6730    -3.1180    -0.0780 na         1 3I7       0.009800
     25 C25          4.2760    -3.1620     0.0380 cd         1 3I7      -0.132000
     26 HN1          1.6710     7.4440    -0.2590 hn         1 3I7       0.514667
     27 HN1A         0.3850     6.7060    -0.9630 hn         1 3I7       0.514667
     28 HN1B         0.4900     6.7940     0.6770 hn         1 3I7       0.514667
     29 HN24         6.2990    -3.9230    -0.1010 hn         1 3I7       0.383000
     30 H2           2.3780     5.2150    -1.0760 hx         1 3I7       0.107200
     31 H2A          2.4910     5.3100     0.6940 hx         1 3I7       0.107200
     32 H3           0.2350     4.2380     0.8920 hc         1 3I7       0.086200
     33 H3A          0.1220     4.1430    -0.8700 hc         1 3I7       0.086200
     34 H4           2.1240     2.6450    -0.9270 h1         1 3I7       0.047200
     35 H4A          2.2410     2.7430     0.8530 h1         1 3I7       0.047200
     36 H7           2.9890     0.6630    -0.0050 ha         1 3I7       0.112000
     37 H9           1.6330    -3.4090     0.2700 ha         1 3I7       0.127000
     38 H10         -0.6690    -2.6660     0.4490 ha         1 3I7       0.129000
     39 HN14        -2.1900    -1.9010    -0.2920 hn         1 3I7       0.154000
     40 H16         -4.3590     1.0820     0.4220 ha         1 3I7       0.124000
     41 H17         -6.8120     0.9370     0.3130 ha         1 3I7       0.116500
     42 H18         -7.9280    -1.2330    -0.1880 ha         1 3I7       0.121000
     43 H19         -6.5550    -3.2760    -0.5810 ha         1 3I7       0.116500
     44 H20         -4.0790    -3.1530    -0.4680 ha         1 3I7       0.124000
     45 H22          5.1530    -0.0120    -0.1470 h4         1 3I7       0.031100
     46 H25          3.7210    -4.0900     0.1160 h4         1 3I7       0.163000
@<TRIPOS>BOND
     1     1     2 1   
     2     1    26 1   
     3     1    27 1   
     4     1    28 1   
     5     2     3 1   
     6     2    30 1   
     7     2    31 1   
     8     3     4 1   
     9     3    32 1   
    10     3    33 1   
    11     4     5 1   
    12     4    34 1   
    13     4    35 1   
    14     5     6 1   
    15     6     7 ar  
    16     6    11 ar  
    17     7     8 ar  
    18     7    36 1   
    19     8     9 ar  
    20     8    21 1   
    21     9    10 ar  
    22     9    37 1   
    23    10    11 ar  
    24    10    38 1   
    25    11    12 1   
    26    12    13 2   
    27    12    14 1   
    28    14    15 1   
    29    14    39 1   
    30    15    16 ar  
    31    15    20 ar  
    32    16    17 ar  
    33    16    40 1   
    34    17    18 ar  
    35    17    41 1   
    36    18    19 ar  
    37    18    42 1   
    38    19    20 ar  
    39    19    43 1   
    40    20    44 1   
    41    21    22 1   
    42    21    25 2   
    43    22    23 2   
    44    22    45 1   
    45    23    24 1   
    46    24    25 1   
    47    24    29 1   
    48    25    46 1   
@<TRIPOS>SUBSTRUCTURE
     1 3I7         1 TEMP              0 ****  ****    0 ROOT
