@<TRIPOS>MOLECULE
3I7
   46    48     1     0     0
SMALL
abcg2


@<TRIPOS>ATOM
      1 N1           0.9270     6.3960    -0.4130 nz         1 3I7      -0.972000
      2 C2           1.6390     5.1040    -0.2480 c3         1 3I7       0.099600
      3 C3           0.6530     3.9550    -0.1810 c3         1 3I7      -0.115400
      4 C4           1.3970     2.6400    -0.0550 c3         1 3I7       0.179600
      5 O5           0.4230     1.6230     0.0900 os         1 3I7      -0.331100
      6 C6           0.8120     0.3470     0.2250 ca         1 3I7       0.179100
      7 C7           2.1350    -0.0690     0.1230 ca         1 3I7      -0.211000
      8 C8           2.4760    -1.4190     0.2330 ca         1 3I7       0.095000
      9 C9           1.4640    -2.3550     0.4400 ca         1 3I7      -0.145000
     10 C10          0.1470    -1.9400     0.5320 ca         1 3I7      -0.042000
     11 C11         -0.2030    -0.5990     0.4370 ca         1 3I7      -0.193600
     12 C12         -1.6190    -0.1710     0.6430 c          1 3I7       0.633700
     13 O13         -1.9250     0.7170     1.4170 o          1 3I7      -0.578100
     14 N14         -2.5120    -0.8880    -0.0880 ns         1 3I7      -0.144000
     15 C15         -3.9100    -0.8620    -0.0480 ca         1 3I7      -0.028000
     16 C16         -4.6610     0.1020     0.6260 ca         1 3I7      -0.149500
     17 C17         -6.0490     0.0340     0.5980 ca         1 3I7      -0.082000
     18 C18         -6.7080    -0.9710    -0.0930 ca         1 3I7      -0.128000
     19 C19         -5.9580    -1.9260    -0.7690 ca         1 3I7      -0.082000
     20 C20         -4.5750    -1.8740    -0.7460 ca         1 3I7      -0.149500
     21 C21          3.8710    -1.8310     0.1230 cc         1 3I7      -0.189000
     22 C22          5.0330    -1.0290     0.1790 cc         1 3I7       0.254900
     23 N23          6.1280    -1.7480     0.0370 nd         1 3I7      -0.506800
     24 N24          5.6990    -2.9960    -0.1130 na         1 3I7       0.009800
     25 C25          4.3670    -3.1080    -0.0690 cd         1 3I7      -0.132000
     26 HN1          1.5760     7.1810    -0.4260 hn         1 3I7       0.514667
     27 HN1A         0.4000     6.4320    -1.2860 hn         1 3I7       0.514667
     28 HN1B         0.2670     6.5690     0.3450 hn         1 3I7       0.514667
     29 HN24         6.3630    -3.7410    -0.2540 hn         1 3I7       0.383000
     30 H2           2.3170     5.0110    -1.0940 hx         1 3I7       0.107200
     31 H2A          2.2300     5.1840     0.6620 hx         1 3I7       0.107200
     32 H3          -0.0070     4.0850     0.6790 hc         1 3I7       0.086200
     33 H3A          0.0330     3.9420    -1.0800 hc         1 3I7       0.086200
     34 H4           2.0120     2.4680    -0.9460 h1         1 3I7       0.047200
     35 H4A          2.0640     2.6570     0.8140 h1         1 3I7       0.047200
     36 H7           2.9180     0.6540    -0.0570 ha         1 3I7       0.112000
     37 H9           1.6960    -3.4060     0.5460 ha         1 3I7       0.127000
     38 H10         -0.6210    -2.6820     0.7150 ha         1 3I7       0.129000
     39 HN14        -2.1190    -1.5580    -0.7320 hn         1 3I7       0.154000
     40 H16         -4.1810     0.9020     1.1630 ha         1 3I7       0.124000
     41 H17         -6.6170     0.7890     1.1250 ha         1 3I7       0.116500
     42 H18         -7.7890    -1.0120    -0.1070 ha         1 3I7       0.121000
     43 H19         -6.4500    -2.7210    -1.3140 ha         1 3I7       0.116500
     44 H20         -4.0030    -2.6310    -1.2700 ha         1 3I7       0.124000
     45 H22          5.1040     0.0380     0.3290 h4         1 3I7       0.031100
     46 H25          3.8750    -4.0600    -0.1880 h4         1 3I7       0.163000
@<TRIPOS>BOND
     1     1     2 1   
     2     1    26 1   
     3     1    27 1   
     4     1    28 1   
     5     2     3 1   
     6     2    30 1   
     7     2    31 1   
     8     3     4 1   
     9     3    32 1   
    10     3    33 1   
    11     4     5 1   
    12     4    34 1   
    13     4    35 1   
    14     5     6 1   
    15     6     7 ar  
    16     6    11 ar  
    17     7     8 ar  
    18     7    36 1   
    19     8     9 ar  
    20     8    21 1   
    21     9    10 ar  
    22     9    37 1   
    23    10    11 ar  
    24    10    38 1   
    25    11    12 1   
    26    12    13 2   
    27    12    14 1   
    28    14    15 1   
    29    14    39 1   
    30    15    16 ar  
    31    15    20 ar  
    32    16    17 ar  
    33    16    40 1   
    34    17    18 ar  
    35    17    41 1   
    36    18    19 ar  
    37    18    42 1   
    38    19    20 ar  
    39    19    43 1   
    40    20    44 1   
    41    21    22 1   
    42    21    25 2   
    43    22    23 2   
    44    22    45 1   
    45    23    24 1   
    46    24    25 1   
    47    24    29 1   
    48    25    46 1   
@<TRIPOS>SUBSTRUCTURE
     1 3I7         1 TEMP              0 ****  ****    0 ROOT
