@<TRIPOS>MOLECULE
3IA
   33    33     1     0     0
SMALL
No Charge or Current Charge


@<TRIPOS>ATOM
      1 C03          9.5270    29.7030    85.2300 c6         1 3IA       0.163300
      2 C02         10.9850    29.5920    85.8100 c6         1 3IA       0.203300
      3 C01         11.6630    28.2580    85.3370 c6         1 3IA       0.209300
      4 C06         11.6820    28.1550    83.7620 c6         1 3IA       0.157300
      5 C05         10.2270    28.3010    83.1680 c6         1 3IA       0.166300
      6 C04          9.5610    29.6410    83.6600 c6         1 3IA       0.207300
      7 O01         12.9990    28.1210    85.8940 os         1 3IA      -0.595400
      8 O02         10.9940    29.7060    87.2600 os         1 3IA      -0.597400
      9 O03          8.8120    30.8690    85.7130 oh         1 3IA      -0.762000
     10 O04          8.2350    29.8350    83.0910 os         1 3IA      -0.623400
     11 O05         10.2340    28.1910    81.7210 oh         1 3IA      -0.797000
     12 O06         12.3190    26.9340    83.2990 oh         1 3IA      -0.803000
     13 P01         13.5200    26.6810    86.3840 p5         1 3IA       1.328900
     14 P04          8.0570    30.7010    81.7490 p5         1 3IA       1.327900
     15 O12         13.4580    25.7500    85.2280 o          1 3IA      -0.947500
     16 O11         12.6750    26.1680    87.4960 o          1 3IA      -0.947500
     17 O13         14.9290    26.8020    86.8440 o          1 3IA      -0.947500
     18 O41          8.8770    30.0700    80.6840 o          1 3IA      -0.948167
     19 O42          8.4970    32.1040    81.9710 o          1 3IA      -0.948167
     20 O43          6.6250    30.6840    81.3480 o          1 3IA      -0.948167
     21 P02         11.2490    31.1380    87.9450 p5         1 3IA       1.329900
     22 O23         12.6010    31.6510    87.5960 o          1 3IA      -0.946500
     23 O21         11.1320    31.0020    89.4220 o          1 3IA      -0.946500
     24 O22         10.2070    32.0740    87.4510 o          1 3IA      -0.946500
     25 H1           8.9830    28.8110    85.5740 h1         1 3IA      -0.012300
     26 H2          11.5740    30.4220    85.3910 h1         1 3IA       0.035700
     27 H3          11.0430    27.4300    85.7130 h1         1 3IA       0.024700
     28 H4          12.2680    29.0110    83.3970 h1         1 3IA      -0.000300
     29 H5           9.6230    27.4760    83.5750 h1         1 3IA      -0.006300
     30 H6          10.2040    30.4670    83.3210 h1         1 3IA       0.031700
     31 H7           9.4010    31.3120    86.4160 ho         1 3IA       0.510000
     32 H8           9.6620    28.9540    81.3620 ho         1 3IA       0.512000
     33 H9          12.7740    26.5090    84.1060 ho         1 3IA       0.517000
@<TRIPOS>BOND
     1     1     2 1   
     2     1     6 1   
     3     1     9 1   
     4     1    25 1   
     5     2     3 1   
     6     2     8 1   
     7     2    26 1   
     8     3     4 1   
     9     3     7 1   
    10     3    27 1   
    11     4     5 1   
    12     4    12 1   
    13     4    28 1   
    14     5     6 1   
    15     5    11 1   
    16     5    29 1   
    17     6    10 1   
    18     6    30 1   
    19     7    13 1   
    20     8    21 1   
    21     9    31 1   
    22    10    14 1   
    23    11    32 1   
    24    12    33 1   
    25    13    15 1   
    26    13    16 1   
    27    13    17 1   
    28    14    18 1   
    29    14    19 1   
    30    14    20 1   
    31    21    22 1   
    32    21    23 1   
    33    21    24 1   
@<TRIPOS>SUBSTRUCTURE
     1 3IA         1 TEMP              0 ****  ****    0 ROOT
