@<TRIPOS>MOLECULE
3IA
   33    33     1     0     0
SMALL
abcg2


@<TRIPOS>ATOM
      1 C03          9.6410    29.8550    85.1180 c6         1 3IA       0.163300
      2 C02         11.0190    29.6070    85.7370 c6         1 3IA       0.203300
      3 C01         11.6070    28.2630    85.3130 c6         1 3IA       0.209300
      4 C06         11.6200    28.0970    83.7920 c6         1 3IA       0.157300
      5 C05         10.2460    28.3460    83.1780 c6         1 3IA       0.166300
      6 C04          9.6660    29.6970    83.6000 c6         1 3IA       0.207300
      7 O01         12.9340    28.1830    85.8240 os         1 3IA      -0.595400
      8 O02         10.9290    29.6120    87.1560 os         1 3IA      -0.597400
      9 O03          9.1610    31.1540    85.4210 oh         1 3IA      -0.762000
     10 O04          8.3320    29.8210    83.1140 os         1 3IA      -0.623400
     11 O05         10.3560    28.2400    81.7660 oh         1 3IA      -0.797000
     12 O06         12.0520    26.7990    83.4120 oh         1 3IA      -0.803000
     13 P01         13.5470    26.7590    86.4530 p5         1 3IA       1.328900
     14 P04          7.9900    30.6860    81.7220 p5         1 3IA       1.327900
     15 O12         13.6690    25.8260    85.2320 o          1 3IA      -0.947500
     16 O11         12.5450    26.2560    87.4800 o          1 3IA      -0.947500
     17 O13         14.8850    27.2070    87.0130 o          1 3IA      -0.947500
     18 O41          8.7140    29.9110    80.6040 o          1 3IA      -0.948167
     19 O42          8.5450    32.0890    81.9150 o          1 3IA      -0.948167
     20 O43          6.4770    30.5900    81.6500 o          1 3IA      -0.948167
     21 P02         11.2210    30.9940    88.0530 p5         1 3IA       1.329900
     22 O23         12.5040    31.6070    87.5140 o          1 3IA      -0.946500
     23 O21         11.3040    30.4550    89.4690 o          1 3IA      -0.946500
     24 O22          9.9820    31.8750    87.8030 o          1 3IA      -0.946500
     25 H1           8.9540    29.0970    85.5250 h1         1 3IA      -0.012300
     26 H2          11.7000    30.4010    85.4130 h1         1 3IA       0.035700
     27 H3          10.9970    27.4670    85.7550 h1         1 3IA       0.024700
     28 H4          12.3090    28.8530    83.3830 h1         1 3IA      -0.000300
     29 H5           9.5680    27.5640    83.5520 h1         1 3IA      -0.006300
     30 H6          10.2860    30.5000    83.1840 h1         1 3IA       0.031700
     31 H7           9.4370    31.4100    86.3520 ho         1 3IA       0.510000
     32 H8           9.6970    28.8550    81.3260 ho         1 3IA       0.512000
     33 H9          12.7030    26.4470    84.0890 ho         1 3IA       0.517000
@<TRIPOS>BOND
     1     1     2 1   
     2     1     6 1   
     3     1     9 1   
     4     1    25 1   
     5     2     3 1   
     6     2     8 1   
     7     2    26 1   
     8     3     4 1   
     9     3     7 1   
    10     3    27 1   
    11     4     5 1   
    12     4    12 1   
    13     4    28 1   
    14     5     6 1   
    15     5    11 1   
    16     5    29 1   
    17     6    10 1   
    18     6    30 1   
    19     7    13 1   
    20     8    21 1   
    21     9    31 1   
    22    10    14 1   
    23    11    32 1   
    24    12    33 1   
    25    13    15 1   
    26    13    16 1   
    27    13    17 1   
    28    14    18 1   
    29    14    19 1   
    30    14    20 1   
    31    21    22 1   
    32    21    23 1   
    33    21    24 1   
@<TRIPOS>SUBSTRUCTURE
     1 3IA         1 TEMP              0 ****  ****    0 ROOT
