@<TRIPOS>MOLECULE
3IB
   27    28     1     0     0
SMALL
No Charge or Current Charge


@<TRIPOS>ATOM
      1 N1           1.9940     0.3180    -2.4530 na         1 3IB      -0.235700
      2 C2           2.2530    -0.2120    -1.1700 cc         1 3IB      -0.185100
      3 C3           1.0100    -0.5870    -0.6720 cd         1 3IB      -0.097400
      4 C4          -1.3990    -0.4730    -1.6380 ca         1 3IB      -0.038000
      5 C5          -2.1240    -0.0650    -2.7790 ca         1 3IB      -0.159000
      6 C6          -1.4550     0.5080    -3.8880 ca         1 3IB      -0.098000
      7 C7          -0.0530     0.6780    -3.8670 ca         1 3IB      -0.145000
      8 C8           0.6380     0.2630    -2.7210 ca         1 3IB      -0.049200
      9 C9          -0.0100    -0.2880    -1.6520 ca         1 3IB      -0.093800
     10 C10          0.7650    -1.2120     0.6780 c3         1 3IB      -0.018200
     11 C11          0.2120    -0.2000     1.7040 c3         1 3IB      -0.050400
     12 C12         -0.0520    -0.8220     3.0980 c3         1 3IB      -0.206400
     13 C13         -0.5960     0.2480     4.0610 c          1 3IB       0.717000
     14 O1           0.2070     0.9090     4.7030 o          1 3IB      -0.742500
     15 O2          -1.8040     0.4230     4.1060 o          1 3IB      -0.742500
     16 HN1          2.6940     0.6870    -3.0900 hn         1 3IB       0.337000
     17 H2           3.2470    -0.2760    -0.7380 h4         1 3IB       0.206000
     18 H4          -1.9010    -0.9140    -0.7800 ha         1 3IB       0.127000
     19 H5          -3.2040    -0.1910    -2.8050 ha         1 3IB       0.103000
     20 H6          -2.0230     0.8190    -4.7620 ha         1 3IB       0.096000
     21 H7           0.4710     1.1160    -4.7130 ha         1 3IB       0.099000
     22 H101         1.6980    -1.6420     1.0640 hc         1 3IB       0.031700
     23 H102         0.0600    -2.0460     0.5760 hc         1 3IB       0.031700
     24 H111        -0.7210     0.2300     1.3190 hc         1 3IB       0.043200
     25 H112         0.9240     0.6290     1.8060 hc         1 3IB       0.043200
     26 H121         0.9190    -1.1960     3.4480 hc         1 3IB       0.013700
     27 H122        -0.7970    -1.6110     2.9380 hc         1 3IB       0.013700
@<TRIPOS>BOND
     1     1     2 1   
     2     1     8 1   
     3     1    16 1   
     4     2     3 2   
     5     2    17 1   
     6     3     9 1   
     7     3    10 1   
     8     4     5 ar  
     9     4     9 ar  
    10     4    18 1   
    11     5     6 ar  
    12     5    19 1   
    13     6     7 ar  
    14     6    20 1   
    15     7     8 ar  
    16     7    21 1   
    17     8     9 ar  
    18    10    11 1   
    19    10    22 1   
    20    10    23 1   
    21    11    12 1   
    22    11    24 1   
    23    11    25 1   
    24    12    13 1   
    25    12    26 1   
    26    12    27 1   
    27    13    14 1   
    28    13    15 1   
@<TRIPOS>SUBSTRUCTURE
     1 3IB         1 TEMP              0 ****  ****    0 ROOT
