@<TRIPOS>MOLECULE
3IB
   27    28     1     0     0
SMALL
bcc


@<TRIPOS>ATOM
      1 N1           1.9470     0.3180    -2.5200 na         1 3IB      -0.185400
      2 C2           2.1890    -0.1670    -1.2620 cc         1 3IB      -0.135100
      3 C3           1.0220    -0.5560    -0.6690 cd         1 3IB      -0.097400
      4 C4          -1.3990    -0.4790    -1.6300 ca         1 3IB      -0.056000
      5 C5          -2.1220    -0.1210    -2.7510 ca         1 3IB      -0.177000
      6 C6          -1.4850     0.4240    -3.8790 ca         1 3IB      -0.116000
      7 C7          -0.1170     0.6160    -3.9090 ca         1 3IB      -0.163000
      8 C8           0.6100     0.2520    -2.7760 ca         1 3IB      -0.049200
      9 C9          -0.0110    -0.2940    -1.6290 ca         1 3IB      -0.093800
     10 C10          0.8450    -1.1100     0.7070 c3         1 3IB      -0.018200
     11 C11          0.1970    -0.1250     1.6840 c3         1 3IB      -0.050400
     12 C12          0.0200    -0.7280     3.0670 c3         1 3IB      -0.206400
     13 C13         -0.6060     0.1890     4.1330 c          1 3IB       0.927600
     14 O1          -0.6910    -0.2930     5.2840 o          1 3IB      -0.847800
     15 O2          -0.9820     1.3240     3.7810 o          1 3IB      -0.847800
     16 HN1          2.6520     0.6480    -3.1570 hn         1 3IB       0.286700
     17 H2           3.1960    -0.2020    -0.8760 h4         1 3IB       0.156000
     18 H4          -1.8980    -0.9000    -0.7660 ha         1 3IB       0.145000
     19 H5          -3.1950    -0.2590    -2.7660 ha         1 3IB       0.121000
     20 H6          -2.0780     0.6990    -4.7420 ha         1 3IB       0.114000
     21 H7           0.3710     1.0330    -4.7810 ha         1 3IB       0.117000
     22 H101         1.8170    -1.4200     1.1010 hc         1 3IB       0.031700
     23 H102         0.2340    -2.0190     0.6610 hc         1 3IB       0.031700
     24 H111        -0.7710     0.1970     1.2900 hc         1 3IB       0.043200
     25 H112         0.8150     0.7740     1.7390 hc         1 3IB       0.043200
     26 H121         0.9880    -1.0780     3.4430 hc         1 3IB       0.013700
     27 H122        -0.5960    -1.6330     2.9960 hc         1 3IB       0.013700
@<TRIPOS>BOND
     1     1     2 1   
     2     1     8 1   
     3     1    16 1   
     4     2     3 2   
     5     2    17 1   
     6     3     9 1   
     7     3    10 1   
     8     4     5 ar  
     9     4     9 ar  
    10     4    18 1   
    11     5     6 ar  
    12     5    19 1   
    13     6     7 ar  
    14     6    20 1   
    15     7     8 ar  
    16     7    21 1   
    17     8     9 ar  
    18    10    11 1   
    19    10    22 1   
    20    10    23 1   
    21    11    12 1   
    22    11    24 1   
    23    11    25 1   
    24    12    13 1   
    25    12    26 1   
    26    12    27 1   
    27    13    14 1   
    28    13    15 1   
@<TRIPOS>SUBSTRUCTURE
     1 3IB         1 TEMP              0 ****  ****    0 ROOT
