@<TRIPOS>MOLECULE
3ID
   18    19     1     0     0
SMALL
No Charge or Current Charge


@<TRIPOS>ATOM
      1 N1           1.0160     0.0450    -2.3560 na         1 3ID      -0.220700
      2 C2          -0.1410    -0.0200    -3.1640 cc         1 3ID      -0.168100
      3 C3          -1.1910    -0.0690    -2.2570 cd         1 3ID      -0.236200
      4 C4          -1.3570    -0.0600     0.3290 ca         1 3ID      -0.115000
      5 C5          -0.5560    -0.0100     1.4920 ca         1 3ID       0.026100
      6 C6           0.8600     0.0630     1.3810 ca         1 3ID       0.143100
      7 C7           1.4860     0.0870     0.1180 ca         1 3ID      -0.148000
      8 C8           0.6630     0.0360    -1.0150 ca         1 3ID      -0.042200
      9 C9          -0.6970    -0.0340    -0.9060 ca         1 3ID      -0.100800
     10 O1          -1.1440    -0.0320     2.7320 oh         1 3ID      -0.565100
     11 O2           1.6120     0.1100     2.5170 oh         1 3ID      -0.538100
     12 HN1          1.9710     0.0930    -2.7010 hn         1 3ID       0.349000
     13 H2          -0.1200    -0.0270    -4.2520 h4         1 3ID       0.211000
     14 H3          -2.2420    -0.1250    -2.5360 ha         1 3ID       0.204000
     15 H4          -2.4410    -0.1160     0.3810 ha         1 3ID       0.116000
     16 H7           2.5680     0.1420     0.0290 ha         1 3ID       0.131000
     17 H1O         -2.1200    -0.0840     2.6220 ho         1 3ID       0.472000
     18 H2O          0.9680     0.0810     3.2610 ho         1 3ID       0.482000
@<TRIPOS>BOND
     1     1     2 1   
     2     1     8 1   
     3     1    12 1   
     4     2     3 2   
     5     2    13 1   
     6     3     9 1   
     7     3    14 1   
     8     4     5 ar  
     9     4     9 ar  
    10     4    15 1   
    11     5     6 ar  
    12     5    10 1   
    13     6     7 ar  
    14     6    11 1   
    15     7     8 ar  
    16     7    16 1   
    17     8     9 ar  
    18    10    17 1   
    19    11    18 1   
@<TRIPOS>SUBSTRUCTURE
     1 3ID         1 TEMP              0 ****  ****    0 ROOT
