@<TRIPOS>MOLECULE
3ID
   18    19     1     0     0
SMALL
abcg2


@<TRIPOS>ATOM
      1 N1           1.0080     0.0440    -2.3340 na         1 3ID      -0.220700
      2 C2          -0.1210    -0.0200    -3.1020 cc         1 3ID      -0.168100
      3 C3          -1.2220    -0.0710    -2.2950 cd         1 3ID      -0.236200
      4 C4          -1.3650    -0.0600     0.3110 ca         1 3ID      -0.115000
      5 C5          -0.5840    -0.0130     1.4430 ca         1 3ID       0.026100
      6 C6           0.8290     0.0600     1.3570 ca         1 3ID       0.143100
      7 C7           1.4580     0.0850     0.1300 ca         1 3ID      -0.148000
      8 C8           0.6590     0.0360    -1.0140 ca         1 3ID      -0.042200
      9 C9          -0.7450    -0.0360    -0.9480 ca         1 3ID      -0.100800
     10 O1          -1.0790    -0.0300     2.7100 oh         1 3ID      -0.565100
     11 O2           1.5820     0.1090     2.4810 oh         1 3ID      -0.538100
     12 HN1          1.9470     0.0970    -2.6910 hn         1 3ID       0.349000
     13 H2          -0.0510    -0.0240    -4.1770 h4         1 3ID       0.211000
     14 H3          -2.2480    -0.1280    -2.6230 ha         1 3ID       0.204000
     15 H4          -2.4450    -0.1130     0.3960 ha         1 3ID       0.116000
     16 H7           2.5380     0.1390     0.0710 ha         1 3ID       0.131000
     17 H1O         -2.0410    -0.0780     2.6990 ho         1 3ID       0.472000
     18 H2O          1.0160     0.0830     3.2610 ho         1 3ID       0.482000
@<TRIPOS>BOND
     1     1     2 1   
     2     1     8 1   
     3     1    12 1   
     4     2     3 2   
     5     2    13 1   
     6     3     9 1   
     7     3    14 1   
     8     4     5 ar  
     9     4     9 ar  
    10     4    15 1   
    11     5     6 ar  
    12     5    10 1   
    13     6     7 ar  
    14     6    11 1   
    15     7     8 ar  
    16     7    16 1   
    17     8     9 ar  
    18    10    17 1   
    19    11    18 1   
@<TRIPOS>SUBSTRUCTURE
     1 3ID         1 TEMP              0 ****  ****    0 ROOT
