@<TRIPOS>MOLECULE
3IE
   17    16     1     0     0
SMALL
No Charge or Current Charge


@<TRIPOS>ATOM
      1 C01        -16.8890    50.5190   -25.3610 c3         1 3IE      -0.083100
      2 C02        -16.6400    51.3880   -24.1090 c3         1 3IE       0.153500
      3 C03        -17.4110    52.7410   -24.1490 c3         1 3IE       0.119600
      4 C05        -17.5700    54.7990   -25.4110 c3         1 3IE       0.145900
      5 N06        -16.9710    50.6070   -22.8920 n8         1 3IE      -0.986200
      6 O04        -16.9290    53.5210   -25.2590 os         1 3IE      -0.450000
      7 H012       -16.3290    49.5780   -25.2990 hc         1 3IE       0.039367
      8 H013       -17.9550    50.2810   -25.4690 hc         1 3IE       0.039367
      9 H011       -16.5630    51.0410   -26.2680 hc         1 3IE       0.039367
     10 H021       -15.5650    51.6230   -24.0710 h1         1 3IE       0.078700
     11 H032       -17.2460    53.2820   -23.2080 h1         1 3IE       0.018200
     12 H031       -18.4880    52.5480   -24.2500 h1         1 3IE       0.018200
     13 H051       -17.1520    55.3350   -26.2730 h1         1 3IE       0.028033
     14 H052       -18.6490    54.6780   -25.5730 h1         1 3IE       0.028033
     15 H053       -17.4200    55.4190   -24.5170 h1         1 3IE       0.028033
     16 H061       -16.8210    51.1940   -22.0630 hn         1 3IE       0.391500
     17 H062       -17.9820    50.4240   -22.8770 hn         1 3IE       0.391500
@<TRIPOS>BOND
     1     1     2 1   
     2     1     7 1   
     3     1     8 1   
     4     1     9 1   
     5     2     3 1   
     6     2     5 1   
     7     2    10 1   
     8     3     6 1   
     9     3    11 1   
    10     3    12 1   
    11     4     6 1   
    12     4    13 1   
    13     4    14 1   
    14     4    15 1   
    15     5    16 1   
    16     5    17 1   
@<TRIPOS>SUBSTRUCTURE
     1 3IE         1 TEMP              0 ****  ****    0 ROOT
