@<TRIPOS>MOLECULE
3IE
   17    16     1     0     0
SMALL
bcc


@<TRIPOS>ATOM
      1 C01        -17.0320    50.4360   -25.2880 c3         1 3IE      -0.083100
      2 C02        -16.6560    51.4120   -24.1820 c3         1 3IE       0.153500
      3 C03        -17.4680    52.7120   -24.2910 c3         1 3IE       0.096400
      4 C05        -17.4840    54.8220   -25.2930 c3         1 3IE       0.122700
      5 N06        -16.7690    50.7450   -22.8920 n8         1 3IE      -0.875800
      6 O04        -16.7600    53.6410   -25.0760 os         1 3IE      -0.403600
      7 H012       -16.3870    49.5570   -25.2720 hc         1 3IE       0.039367
      8 H013       -18.0660    50.1000   -25.1750 hc         1 3IE       0.039367
      9 H011       -16.9410    50.9040   -26.2690 hc         1 3IE       0.039367
     10 H021       -15.6040    51.6830   -24.3180 h1         1 3IE       0.078700
     11 H032       -17.6660    53.1180   -23.2880 h1         1 3IE       0.018200
     12 H031       -18.4510    52.5080   -24.7440 h1         1 3IE       0.018200
     13 H051       -16.8780    55.4830   -25.9120 h1         1 3IE       0.028033
     14 H052       -18.4330    54.6370   -25.8120 h1         1 3IE       0.028033
     15 H053       -17.7150    55.3440   -24.3560 h1         1 3IE       0.028033
     16 H061       -16.5340    51.3930   -22.1500 hn         1 3IE       0.336300
     17 H062       -17.7360    50.4830   -22.7310 hn         1 3IE       0.336300
@<TRIPOS>BOND
     1     1     2 1   
     2     1     7 1   
     3     1     8 1   
     4     1     9 1   
     5     2     3 1   
     6     2     5 1   
     7     2    10 1   
     8     3     6 1   
     9     3    11 1   
    10     3    12 1   
    11     4     6 1   
    12     4    13 1   
    13     4    14 1   
    14     4    15 1   
    15     5    16 1   
    16     5    17 1   
@<TRIPOS>SUBSTRUCTURE
     1 3IE         1 TEMP              0 ****  ****    0 ROOT
