@<TRIPOS>MOLECULE
3IF
   56    60     1     0     0
SMALL
abcg2


@<TRIPOS>ATOM
      1 N1           3.0840     3.9460   -10.1490 na         1 3IF      -0.455000
      2 N3           4.9530     4.8460   -10.7820 nc         1 3IF      -0.359000
      3 C4           3.8160     0.3060   -10.2570 ca         1 3IF      -0.101500
      4 C5           3.8470    -0.6720    -9.2690 ca         1 3IF      -0.108000
      5 C6           4.8010    -0.6150    -8.2640 ca         1 3IF      -0.102000
      6 C7           4.7010     2.4200   -11.3120 c3         1 3IF      -0.062400
      7 C8           4.2640     3.7310   -10.7640 cd         1 3IF       0.395800
      8 C10          1.9740     5.8960    -9.0810 c          1 3IF       0.545600
      9 C13         -0.4200     9.1580    -6.1730 ca         1 3IF       0.085100
     10 C15          1.2500     9.4180    -8.6270 c          1 3IF       0.563000
     11 C17         -1.3890     8.7400    -5.2730 ca         1 3IF      -0.105000
     12 C20         -2.1390     9.9440    -7.6600 ca         1 3IF      -0.098000
     13 C22         -5.6670     9.8780    -7.3150 c1         1 3IF      -0.069100
     14 C24         -7.5920     9.5270    -8.9400 cx         1 3IF      -0.113900
     15 C1           5.7260     0.4230    -8.2510 ca         1 3IF      -0.108000
     16 C11          1.2330     7.9920    -8.0820 c3         1 3IF      -0.005300
     17 C12          1.5690     7.9860    -6.5820 c3         1 3IF       0.148600
     18 C14         -0.7930     9.7600    -7.3780 ca         1 3IF      -0.069000
     19 C18         -2.7290     8.9400    -5.5510 ca         1 3IF      -0.087000
     20 C19         -3.1180     9.5420    -6.7500 ca         1 3IF       0.051000
     21 C2           5.6930     1.3970    -9.2380 ca         1 3IF      -0.101500
     22 C23         -7.0560    10.0500    -7.6300 cx         1 3IF      -0.060600
     23 C25         -7.9680     8.8490    -7.6690 cx         1 3IF      -0.113900
     24 C3           4.7380     1.3460   -10.2510 ca         1 3IF      -0.102300
     25 C9           3.0950     5.2490    -9.7980 cd         1 3IF       0.314000
     26 N2           4.2150     5.7980   -10.1760 nc         1 3IF      -0.339000
     27 N4           2.1830     7.1890    -8.7960 ns         1 3IF      -0.471900
     28 N5           0.2020    10.2000    -8.2750 n          1 3IF      -0.221400
     29 O1           0.9740     5.2600    -8.7950 o          1 3IF      -0.607100
     30 O2           0.8980     9.0180    -5.8790 os         1 3IF      -0.346100
     31 H1           2.3450     3.2790    -9.9770 hn         1 3IF       0.384000
     32 H2           3.0680     0.2560   -11.0390 ha         1 3IF       0.117000
     33 H3           3.1240    -1.4770    -9.2870 ha         1 3IF       0.116000
     34 H4           4.8270    -1.3750    -7.4950 ha         1 3IF       0.115000
     35 H5           4.0300     2.1230   -12.1220 hc         1 3IF       0.078200
     36 H6           5.6890     2.5610   -11.7520 hc         1 3IF       0.078200
     37 H7          -1.0850     8.2770    -4.3430 ha         1 3IF       0.133000
     38 H8          -2.4340    10.4010    -8.5960 ha         1 3IF       0.131000
     39 H10         -6.8930     9.0280    -9.5980 hc         1 3IF       0.077200
     40 H11          6.4750     0.4730    -7.4720 ha         1 3IF       0.116000
     41 H12          0.2410     7.5610    -8.2410 h1         1 3IF       0.102700
     42 H13          1.3260     7.0030    -6.1640 h1         1 3IF       0.069200
     43 H14          2.6350     8.1680    -6.4470 h1         1 3IF       0.069200
     44 H18         -3.4810     8.6230    -4.8410 ha         1 3IF       0.128000
     45 H19          6.4170     2.2040    -9.2230 ha         1 3IF       0.117000
     46 H20         -7.4950    10.9730    -7.2670 hc         1 3IF       0.096700
     47 H21         -8.9710     8.9850    -7.2870 hc         1 3IF       0.077200
     48 H22         -7.5290     7.8840    -7.4550 hc         1 3IF       0.077200
     49 H23          3.0540     7.6170    -9.0790 hn         1 3IF       0.366500
     50 O3           2.1490     9.8160    -9.3420 o          1 3IF      -0.536000
     51 C21         -4.4980     9.7320    -7.0540 cg         1 3IF      -0.135000
     52 C16          0.1650    11.5650    -8.7870 c3         1 3IF       0.095300
     53 H9          -8.3330    10.1340    -9.4430 hc         1 3IF       0.077200
     54 H15         -0.7030    12.0740    -8.3790 h1         1 3IF       0.050033
     55 H16          1.0560    12.1130    -8.4850 h1         1 3IF       0.050033
     56 H17          0.0950    11.5790    -9.8740 h1         1 3IF       0.050033
@<TRIPOS>BOND
     1     1     7 1   
     2     1    25 1   
     3     1    31 1   
     4     2     7 2   
     5     2    26 1   
     6     3     4 ar  
     7     3    24 ar  
     8     3    32 1   
     9     4     5 ar  
    10     4    33 1   
    11     5    15 ar  
    12     5    34 1   
    13     6     7 1   
    14     6    24 1   
    15     6    35 1   
    16     6    36 1   
    17     8    25 1   
    18     8    27 1   
    19     8    29 2   
    20     9    11 ar  
    21     9    18 ar  
    22     9    30 1   
    23    10    16 1   
    24    10    28 1   
    25    10    50 2   
    26    11    19 ar  
    27    11    37 1   
    28    12    18 ar  
    29    12    20 ar  
    30    12    38 1   
    31    13    22 1   
    32    13    51 3   
    33    14    22 1   
    34    14    23 1   
    35    14    39 1   
    36    14    53 1   
    37    15    21 ar  
    38    15    40 1   
    39    16    17 1   
    40    16    27 1   
    41    16    41 1   
    42    17    30 1   
    43    17    42 1   
    44    17    43 1   
    45    18    28 1   
    46    19    20 ar  
    47    19    44 1   
    48    20    51 1   
    49    21    24 ar  
    50    21    45 1   
    51    22    23 1   
    52    22    46 1   
    53    23    47 1   
    54    23    48 1   
    55    25    26 2   
    56    27    49 1   
    57    28    52 1   
    58    52    54 1   
    59    52    55 1   
    60    52    56 1   
@<TRIPOS>SUBSTRUCTURE
     1 3IF         1 TEMP              0 ****  ****    0 ROOT
