@<TRIPOS>MOLECULE
3IF
   56    60     1     0     0
SMALL
No Charge or Current Charge


@<TRIPOS>ATOM
      1 N1           3.8220     3.9050    -9.5080 na         1 3IF      -0.455000
      2 N3           4.9810     4.9470   -11.0590 nc         1 3IF      -0.359000
      3 C4           3.9290     0.5210   -10.6570 ca         1 3IF      -0.101500
      4 C5           3.4520    -0.6190    -9.9860 ca         1 3IF      -0.108000
      5 C6           4.0380    -1.0170    -8.7730 ca         1 3IF      -0.102000
      6 C7           5.5030     2.5130   -10.8410 c3         1 3IF      -0.062400
      7 C8           4.7750     3.7800   -10.4750 cd         1 3IF       0.395800
      8 C10          2.4000     5.8780    -8.6320 c          1 3IF       0.545600
      9 C13         -0.3900     9.4760    -6.2490 ca         1 3IF       0.085100
     10 C15          1.0710     9.4490    -8.9150 c          1 3IF       0.563000
     11 C17         -1.2380     9.1010    -5.1960 ca         1 3IF      -0.105000
     12 C20         -2.3110    10.0140    -7.6240 ca         1 3IF      -0.098000
     13 C22         -5.7930     9.6980    -6.9290 c1         1 3IF      -0.069100
     14 C24         -7.7390     9.9760    -8.5560 cx         1 3IF      -0.113900
     15 C1           5.1010    -0.2750    -8.2310 ca         1 3IF      -0.108000
     16 C11          1.2700     8.1140    -8.1460 c3         1 3IF      -0.005300
     17 C12          1.7100     8.3280    -6.6750 c3         1 3IF       0.148600
     18 C14         -0.9100    10.0090    -7.4480 ca         1 3IF      -0.069000
     19 C18         -2.6310     9.1810    -5.3570 ca         1 3IF      -0.087000
     20 C19         -3.1690     9.6240    -6.5780 ca         1 3IF       0.051000
     21 C2           5.5790     0.8640    -8.9020 ca         1 3IF      -0.101500
     22 C23         -7.2200     9.7230    -7.1590 cx         1 3IF      -0.060600
     23 C25         -7.8610     8.6010    -7.9440 cx         1 3IF      -0.113900
     24 C3           4.9960     1.2670   -10.1190 ca         1 3IF      -0.102300
     25 C9           3.4360     5.2260    -9.5180 cd         1 3IF       0.314000
     26 N2           4.1370     5.8620   -10.4580 nc         1 3IF      -0.339000
     27 N4           2.2180     7.2300    -8.8730 ns         1 3IF      -0.471900
     28 N5          -0.0450    10.2600    -8.5770 n          1 3IF      -0.221400
     29 O1           1.7580     5.2870    -7.7690 o          1 3IF      -0.607100
     30 O2           0.9670     9.4020    -6.0760 os         1 3IF      -0.346100
     31 H1           3.4690     3.1730    -8.9080 hn         1 3IF       0.384000
     32 H2           3.4670     0.8240   -11.5950 ha         1 3IF       0.117000
     33 H3           2.6280    -1.1910   -10.4060 ha         1 3IF       0.116000
     34 H4           3.6690    -1.8990    -8.2530 ha         1 3IF       0.115000
     35 H5           5.4310     2.3640   -11.9250 hc         1 3IF       0.078200
     36 H6           6.5710     2.6500   -10.6370 hc         1 3IF       0.078200
     37 H7          -0.8170     8.7380    -4.2620 ha         1 3IF       0.133000
     38 H8          -2.7420    10.3220    -8.5740 ha         1 3IF       0.131000
     39 H10         -7.0170    10.1110    -9.3580 hc         1 3IF       0.077200
     40 H11          5.5550    -0.5820    -7.2910 ha         1 3IF       0.116000
     41 H12          0.2900     7.6190    -8.1380 h1         1 3IF       0.102700
     42 H13          1.5530     7.3980    -6.1140 h1         1 3IF       0.069200
     43 H14          2.7830     8.5590    -6.6430 h1         1 3IF       0.069200
     44 H18         -3.2880     8.8810    -4.5440 ha         1 3IF       0.128000
     45 H19          6.4000     1.4340    -8.4720 ha         1 3IF       0.117000
     46 H20         -7.7950    10.1400    -6.3340 hc         1 3IF       0.096700
     47 H21         -8.8500     8.2690    -7.6360 hc         1 3IF       0.077200
     48 H22         -7.2200     7.8140    -8.3370 hc         1 3IF       0.077200
     49 H23          2.7830     7.6340    -9.6180 hn         1 3IF       0.366500
     50 O3           1.8270     9.7600    -9.8320 o          1 3IF      -0.536000
     51 C21         -4.5900     9.6660    -6.7620 cg         1 3IF      -0.135000
     52 C16         -0.3600    11.4110    -9.4550 c3         1 3IF       0.095300
     53 H9          -8.6460    10.5670    -8.6590 hc         1 3IF       0.077200
     54 H15         -1.0950    12.0680    -8.9740 h1         1 3IF       0.050033
     55 H16          0.5470    11.9960    -9.6510 h1         1 3IF       0.050033
     56 H17         -0.7690    11.0470   -10.4060 h1         1 3IF       0.050033
@<TRIPOS>BOND
     1     1     7 1   
     2     1    25 1   
     3     1    31 1   
     4     2     7 2   
     5     2    26 1   
     6     3     4 ar  
     7     3    24 ar  
     8     3    32 1   
     9     4     5 ar  
    10     4    33 1   
    11     5    15 ar  
    12     5    34 1   
    13     6     7 1   
    14     6    24 1   
    15     6    35 1   
    16     6    36 1   
    17     8    25 1   
    18     8    27 1   
    19     8    29 2   
    20     9    11 ar  
    21     9    18 ar  
    22     9    30 1   
    23    10    16 1   
    24    10    28 1   
    25    10    50 2   
    26    11    19 ar  
    27    11    37 1   
    28    12    18 ar  
    29    12    20 ar  
    30    12    38 1   
    31    13    22 1   
    32    13    51 3   
    33    14    22 1   
    34    14    23 1   
    35    14    39 1   
    36    14    53 1   
    37    15    21 ar  
    38    15    40 1   
    39    16    17 1   
    40    16    27 1   
    41    16    41 1   
    42    17    30 1   
    43    17    42 1   
    44    17    43 1   
    45    18    28 1   
    46    19    20 ar  
    47    19    44 1   
    48    20    51 1   
    49    21    24 ar  
    50    21    45 1   
    51    22    23 1   
    52    22    46 1   
    53    23    47 1   
    54    23    48 1   
    55    25    26 2   
    56    27    49 1   
    57    28    52 1   
    58    52    54 1   
    59    52    55 1   
    60    52    56 1   
@<TRIPOS>SUBSTRUCTURE
     1 3IF         1 TEMP              0 ****  ****    0 ROOT
