@<TRIPOS>MOLECULE
3IG
   55    57     1     0     0
SMALL
abcg2


@<TRIPOS>ATOM
      1 C1          -3.3750    -0.5510     1.4180 ca         1 3IG       0.429900
      2 N1          -4.6010    -0.0510     1.3070 nb         1 3IG      -0.332000
      3 C2          -5.0010     0.2960     0.0850 ca         1 3IG       0.413900
      4 N2          -4.2890     0.1950    -1.0340 nb         1 3IG      -0.287000
      5 C3          -3.0570    -0.3080    -0.9190 ca         1 3IG       0.213300
      6 C4          -2.5250    -0.7080     0.2960 cp         1 3IG      -0.274000
      7 N3          -2.9790    -0.9240     2.6500 nv         1 3IG      -1.072900
      8 N4          -6.2680     0.7630    -0.0300 nv         1 3IG      -1.054900
      9 C5          -2.2790    -0.3920    -2.2010 c3         1 3IG      -0.133700
     10 C6          -1.8340     0.9870    -2.6840 c3         1 3IG      -0.086100
     11 C7          -0.9750    -2.6320     0.6550 ca         1 3IG      -0.102000
     12 C8           0.3040    -3.1600     0.7510 ca         1 3IG      -0.114000
     13 C9           1.4030    -2.3250     0.6580 ca         1 3IG       0.084100
     14 C10          1.2360    -0.9530     0.4700 ca         1 3IG      -0.091000
     15 C11         -0.0490    -0.4350     0.3660 ca         1 3IG      -0.116000
     16 C12         -1.1640    -1.2690     0.4450 cp         1 3IG      -0.008000
     17 O3           2.6500    -2.8320     0.7700 os         1 3IG      -0.336100
     18 C14          3.6340    -2.2130    -0.0600 c6         1 3IG       0.116000
     19 C15          3.6070    -0.6990     0.1530 c          1 3IG       0.543000
     20 N5           2.3900    -0.1540     0.4240 n          1 3IG      -0.208400
     21 C16          2.2910     1.2900     0.5800 c3         1 3IG       0.075000
     22 C17          2.0810     1.9990    -0.7590 c3         1 3IG       0.081000
     23 N6           1.8830     3.4170    -0.5900 ns         1 3IG      -0.508900
     24 C13          0.7010     3.9510    -0.2350 c          1 3IG       0.598100
     25 C19          0.6760     5.4530    -0.1110 c3         1 3IG      -0.179100
     26 C21          4.9680    -2.7870     0.3820 c3         1 3IG      -0.096600
     27 C20          3.3640    -2.5100    -1.5340 c3         1 3IG      -0.096600
     28 O4           4.6130    -0.0250     0.0430 o          1 3IG      -0.541000
     29 O1          -0.2950     3.2680    -0.0290 o          1 3IG      -0.612100
     30 HN31        -3.5440    -0.6540     3.4360 hn         1 3IG       0.491500
     31 HN32        -2.0120    -1.1270     2.8350 hn         1 3IG       0.491500
     32 HN41        -6.5090     1.2580    -0.8720 hn         1 3IG       0.486000
     33 HN42        -6.7410     1.0540     0.8070 hn         1 3IG       0.486000
     34 H51         -2.9200    -0.8500    -2.9580 hc         1 3IG       0.055200
     35 H52         -1.4120    -1.0430    -2.0840 hc         1 3IG       0.055200
     36 H61         -1.2900     0.9050    -3.6250 hc         1 3IG       0.039700
     37 H62         -2.6920     1.6380    -2.8490 hc         1 3IG       0.039700
     38 H63         -1.1820     1.4730    -1.9570 hc         1 3IG       0.039700
     39 H8           0.4550    -4.2220     0.8980 ha         1 3IG       0.131000
     40 H11         -0.2100     0.6250     0.2190 ha         1 3IG       0.148000
     41 H161         1.4740     1.5060     1.2660 h1         1 3IG       0.071200
     42 H162         3.2040     1.6510     1.0500 h1         1 3IG       0.071200
     43 H171         2.9560     1.8580    -1.3920 h1         1 3IG       0.062700
     44 H172         1.2300     1.5740    -1.2920 h1         1 3IG       0.062700
     45 HN6          2.6730     4.0250    -0.7260 hn         1 3IG       0.318500
     46 H191        -0.1020     5.8550    -0.7590 hc         1 3IG       0.061367
     47 H192         0.4190     5.7260     0.9130 hc         1 3IG       0.061367
     48 H193         1.6210     5.9280    -0.3680 hc         1 3IG       0.061367
     49 H211         4.9700    -3.8670     0.2350 hc         1 3IG       0.055533
     50 H212         5.7810    -2.3670    -0.2050 hc         1 3IG       0.055533
     51 H213         5.1620    -2.5810     1.4340 hc         1 3IG       0.055533
     52 H201         2.4010    -2.1220    -1.8700 hc         1 3IG       0.055533
     53 H202         4.1390    -2.0630    -2.1550 hc         1 3IG       0.055533
     54 H203         3.3750    -3.5870    -1.7010 hc         1 3IG       0.055533
     55 H7          -1.8300    -3.2930     0.7120 ha         1 3IG       0.127000
@<TRIPOS>BOND
     1     1     2 ar  
     2     1     6 ar  
     3     1     7 1   
     4     2     3 ar  
     5     3     4 ar  
     6     3     8 1   
     7     4     5 ar  
     8     5     6 ar  
     9     5     9 1   
    10     6    16 1   
    11     7    30 1   
    12     7    31 1   
    13     8    32 1   
    14     8    33 1   
    15     9    10 1   
    16     9    34 1   
    17     9    35 1   
    18    10    36 1   
    19    10    37 1   
    20    10    38 1   
    21    11    12 ar  
    22    11    16 ar  
    23    11    55 1   
    24    12    13 ar  
    25    12    39 1   
    26    13    14 ar  
    27    13    17 1   
    28    14    15 ar  
    29    14    20 1   
    30    15    16 ar  
    31    15    40 1   
    32    17    18 1   
    33    18    19 1   
    34    18    26 1   
    35    18    27 1   
    36    19    20 1   
    37    19    28 2   
    38    20    21 1   
    39    21    22 1   
    40    21    41 1   
    41    21    42 1   
    42    22    23 1   
    43    22    43 1   
    44    22    44 1   
    45    23    24 1   
    46    23    45 1   
    47    24    25 1   
    48    24    29 2   
    49    25    46 1   
    50    25    47 1   
    51    25    48 1   
    52    26    49 1   
    53    26    50 1   
    54    26    51 1   
    55    27    52 1   
    56    27    53 1   
    57    27    54 1   
@<TRIPOS>SUBSTRUCTURE
     1 3IG         1 TEMP              0 ****  ****    0 ROOT
