@<TRIPOS>MOLECULE
3IG
   55    57     1     0     0
SMALL
No Charge or Current Charge


@<TRIPOS>ATOM
      1 C1          -3.5050    -0.7530     1.4430 ca         1 3IG       0.429900
      2 N1          -4.7490    -0.2810     1.3420 nb         1 3IG      -0.332000
      3 C2          -5.1000     0.1540     0.1310 ca         1 3IG       0.413900
      4 N2          -4.3580     0.1760    -0.9800 nb         1 3IG      -0.287000
      5 C3          -3.0970    -0.2930    -0.8740 ca         1 3IG       0.213300
      6 C4          -2.5970    -0.7910     0.3620 cp         1 3IG      -0.274000
      7 N3          -3.1690    -1.1780     2.6850 nv         1 3IG      -1.072900
      8 N4          -6.3590     0.6310     0.0170 nv         1 3IG      -1.054900
      9 C5          -2.2910    -0.2790    -2.1720 c3         1 3IG      -0.133700
     10 C6          -1.8260     1.1350    -2.5780 c3         1 3IG      -0.086100
     11 C7          -0.9950    -2.6910     0.8000 ca         1 3IG      -0.102000
     12 C8           0.3080    -3.2060     0.8880 ca         1 3IG      -0.114000
     13 C9           1.4100    -2.3590     0.7070 ca         1 3IG       0.084100
     14 C10          1.2300    -0.9660     0.5130 ca         1 3IG      -0.091000
     15 C11         -0.0890    -0.4790     0.3570 ca         1 3IG      -0.116000
     16 C12         -1.2110    -1.3260     0.5100 cp         1 3IG      -0.008000
     17 O3           2.6750    -2.9120     0.7120 os         1 3IG      -0.336100
     18 C14          3.6960    -2.2360    -0.0560 c6         1 3IG       0.116000
     19 C15          3.6810    -0.7070     0.2470 c          1 3IG       0.543000
     20 N5           2.3910    -0.1260     0.2910 n          1 3IG      -0.208400
     21 C16          2.2740     1.3480     0.4380 c3         1 3IG       0.075000
     22 C17          2.0510     2.0610    -0.9130 c3         1 3IG       0.081000
     23 N6           1.8790     3.5130    -0.7730 ns         1 3IG      -0.508900
     24 C13          0.7740     4.1250    -0.2260 c          1 3IG       0.598100
     25 C19          0.8380     5.6450    -0.1880 c3         1 3IG      -0.179100
     26 C21          5.0540    -2.8980     0.3200 c3         1 3IG      -0.096600
     27 C20          3.3970    -2.4900    -1.5650 c3         1 3IG      -0.096600
     28 O4           4.7040    -0.0680     0.4850 o          1 3IG      -0.541000
     29 O1          -0.1850     3.4960     0.1940 o          1 3IG      -0.612100
     30 HN31        -3.7630    -0.9010     3.4620 hn         1 3IG       0.491500
     31 HN32        -2.1850    -1.3270     2.8880 hn         1 3IG       0.491500
     32 HN41        -6.5940     1.1750    -0.8090 hn         1 3IG       0.486000
     33 HN42        -6.8760     0.8410     0.8680 hn         1 3IG       0.486000
     34 H51         -2.8970    -0.6950    -2.9860 hc         1 3IG       0.055200
     35 H52         -1.4150    -0.9330    -2.0970 hc         1 3IG       0.055200
     36 H61         -1.2130     1.0910    -3.4870 hc         1 3IG       0.039700
     37 H62         -2.6860     1.7850    -2.7770 hc         1 3IG       0.039700
     38 H63         -1.2280     1.5930    -1.7830 hc         1 3IG       0.039700
     39 H8           0.4630    -4.2670     1.0650 ha         1 3IG       0.131000
     40 H11         -0.2720     0.5680     0.1340 ha         1 3IG       0.148000
     41 H161         1.4460     1.5760     1.1190 h1         1 3IG       0.071200
     42 H162         3.1750     1.7580     0.9100 h1         1 3IG       0.071200
     43 H171         2.9150     1.8720    -1.5640 h1         1 3IG       0.062700
     44 H172         1.1650     1.6450    -1.4080 h1         1 3IG       0.062700
     45 HN6          2.6210     4.1240    -1.0980 hn         1 3IG       0.318500
     46 H191         1.0220     6.0200    -1.2010 hc         1 3IG       0.061367
     47 H192        -0.0600     6.0940     0.2520 hc         1 3IG       0.061367
     48 H193         1.7460     5.9510     0.3430 hc         1 3IG       0.061367
     49 H211         5.0350    -3.9790     0.1370 hc         1 3IG       0.055533
     50 H212         5.8800    -2.4780    -0.2670 hc         1 3IG       0.055533
     51 H213         5.2880    -2.7440     1.3800 hc         1 3IG       0.055533
     52 H201         2.4440    -2.0450    -1.8760 hc         1 3IG       0.055533
     53 H202         4.1800    -2.0570    -2.2000 hc         1 3IG       0.055533
     54 H203         3.3480    -3.5630    -1.7860 hc         1 3IG       0.055533
     55 H7          -1.8460    -3.3570     0.9220 ha         1 3IG       0.127000
@<TRIPOS>BOND
     1     1     2 ar  
     2     1     6 ar  
     3     1     7 1   
     4     2     3 ar  
     5     3     4 ar  
     6     3     8 1   
     7     4     5 ar  
     8     5     6 ar  
     9     5     9 1   
    10     6    16 1   
    11     7    30 1   
    12     7    31 1   
    13     8    32 1   
    14     8    33 1   
    15     9    10 1   
    16     9    34 1   
    17     9    35 1   
    18    10    36 1   
    19    10    37 1   
    20    10    38 1   
    21    11    12 ar  
    22    11    16 ar  
    23    11    55 1   
    24    12    13 ar  
    25    12    39 1   
    26    13    14 ar  
    27    13    17 1   
    28    14    15 ar  
    29    14    20 1   
    30    15    16 ar  
    31    15    40 1   
    32    17    18 1   
    33    18    19 1   
    34    18    26 1   
    35    18    27 1   
    36    19    20 1   
    37    19    28 2   
    38    20    21 1   
    39    21    22 1   
    40    21    41 1   
    41    21    42 1   
    42    22    23 1   
    43    22    43 1   
    44    22    44 1   
    45    23    24 1   
    46    23    45 1   
    47    24    25 1   
    48    24    29 2   
    49    25    46 1   
    50    25    47 1   
    51    25    48 1   
    52    26    49 1   
    53    26    50 1   
    54    26    51 1   
    55    27    52 1   
    56    27    53 1   
    57    27    54 1   
@<TRIPOS>SUBSTRUCTURE
     1 3IG         1 TEMP              0 ****  ****    0 ROOT
