@<TRIPOS>MOLECULE
3II
   77    81     1     0     0
SMALL
No Charge or Current Charge


@<TRIPOS>ATOM
      1 C1          -3.6970    -3.8680     1.4960 ca         1 3II      -0.006000
      2 C2          -4.1100    -2.6040     1.0310 ca         1 3II      -0.213600
      3 C3          -3.8720    -1.4040     1.9110 c          1 3II       0.638700
      4 C4          -4.7770    -2.5070    -0.2110 ca         1 3II       0.200100
      5 O5          -4.7510    -6.0080    -1.3480 os         1 3II      -0.341100
      6 C6          -4.3400    -7.3360    -0.9760 c3         1 3II       0.148900
      7 O7          -4.1110    -1.4680     3.1110 o          1 3II      -0.601100
      8 N8          -3.4470    -0.1920     1.3200 n          1 3II      -0.400800
      9 C9          -2.3590     1.0770    -0.5920 c6         1 3II      -0.098900
     10 C10         -2.4340    -0.2330     0.2250 c6         1 3II       0.102000
     11 C11         -3.3880     1.0390     2.1560 c6         1 3II       0.102000
     12 C12         -2.1100     2.3240     0.2940 c5         1 3II       0.194200
     13 C13         -3.2650     2.3470     1.3370 c6         1 3II      -0.098900
     14 C14         -0.6790     2.2800     0.9590 c          1 3II       0.565000
     15 C15         -4.9710    -3.6670    -0.9910 ca         1 3II      -0.243000
     16 C16         -4.5290    -4.9150    -0.5380 ca         1 3II       0.189100
     17 O17         -5.2630    -1.2790    -0.6180 os         1 3II      -0.337100
     18 C18         -5.9130    -1.0780    -1.8840 c3         1 3II       0.143900
     19 C19         -3.8960    -5.0160     0.7150 ca         1 3II      -0.241000
     20 N20         -2.0140     3.5670    -0.5440 nh         1 3II      -0.855400
     21 N21          0.1160     3.1770     0.2450 n          1 3II      -0.399800
     22 O22         -0.2830     1.6370     1.9260 o          1 3II      -0.539000
     23 C23         -0.6060     3.9500    -0.7510 c5         1 3II       0.404200
     24 C24         -3.0680     4.4820    -0.7150 ca         1 3II       0.354000
     25 C25          1.5650     3.3240     0.5410 c3         1 3II       0.023000
     26 C26         -3.0270     5.7410    -0.0910 ca         1 3II      -0.190000
     27 C27         -4.1770     4.1430    -1.5080 ca         1 3II      -0.190000
     28 C28         -5.2370     5.0490    -1.6780 ca         1 3II      -0.069500
     29 C29          2.4600     2.1960    -0.0170 c          1 3II       0.575100
     30 C30         -5.1900     6.3050    -1.0500 ca         1 3II      -0.161000
     31 C31         -4.0850     6.6530    -0.2550 ca         1 3II      -0.069500
     32 O32          2.0360     1.2820    -0.7130 o          1 3II      -0.588100
     33 N33          3.7940     2.3010     0.3190 ns         1 3II      -0.505900
     34 C34          4.8300     1.3380    -0.0690 c3         1 3II       0.105000
     35 C35          4.7850     0.0530     0.7830 c3         1 3II      -0.056100
     36 C36          5.8970    -0.9250     0.4100 ca         1 3II      -0.069300
     37 C37          7.0780    -0.9500     1.1800 ca         1 3II      -0.096000
     38 C38          8.1210    -1.8360     0.8580 ca         1 3II      -0.102000
     39 C39          7.9910    -2.7040    -0.2360 ca         1 3II       0.125000
     40 Cl40         9.2970    -3.8120    -0.6380 cl         1 3II      -0.192000
     41 C41          6.8230    -2.6880    -1.0120 ca         1 3II      -0.098000
     42 C42          5.7780    -1.8040    -0.6950 ca         1 3II       0.127000
     43 Cl43         4.3320    -1.8210    -1.7050 cl         1 3II      -0.180000
     44 H1          -3.2040    -3.9580     2.4630 ha         1 3II       0.123000
     45 H6          -3.2530    -7.3820    -0.8340 h1         1 3II       0.042700
     46 H6A         -4.8310    -7.6500    -0.0470 h1         1 3II       0.042700
     47 H6B         -4.6100    -8.0510    -1.7620 h1         1 3II       0.042700
     48 H9          -1.5640     0.9910    -1.3440 hc         1 3II       0.066450
     49 H9A         -3.2970     1.1980    -1.1490 hc         1 3II       0.066450
     50 H10         -1.4500    -0.4440     0.6670 h1         1 3II       0.066700
     51 H10A        -2.6420    -1.0580    -0.4680 h1         1 3II       0.066700
     52 H11         -4.2990     1.1020     2.7690 h1         1 3II       0.066700
     53 H11A        -2.5450     0.9540     2.8550 h1         1 3II       0.066700
     54 H13         -4.2200     2.5170     0.8240 hc         1 3II       0.066450
     55 H13A        -3.1290     3.1960     2.0210 hc         1 3II       0.066450
     56 H15         -5.4750    -3.6230    -1.9500 ha         1 3II       0.134000
     57 H18         -6.8250    -1.6850    -1.9560 h1         1 3II       0.044700
     58 H18A        -6.1970    -0.0250    -2.0010 h1         1 3II       0.044700
     59 H18B        -5.2440    -1.3440    -2.7120 h1         1 3II       0.044700
     60 H19         -3.5520    -5.9720     1.1000 ha         1 3II       0.123000
     61 H23         -0.2320     3.6410    -1.7360 h2         1 3II       0.047700
     62 H23A        -0.4150     5.0100    -0.5440 h2         1 3II       0.047700
     63 H25          1.9280     4.2710     0.1220 h1         1 3II       0.076200
     64 H25A         1.7130     3.3640     1.6270 h1         1 3II       0.076200
     65 H26         -2.1810     6.0090     0.5350 ha         1 3II       0.117000
     66 H27         -4.2120     3.1760    -2.0000 ha         1 3II       0.117000
     67 H28         -6.0920     4.7800    -2.2940 ha         1 3II       0.107500
     68 H30         -6.0100     7.0080    -1.1780 ha         1 3II       0.114000
     69 H31         -4.0490     7.6240     0.2340 ha         1 3II       0.107500
     70 HN33         4.0640     3.0940     0.8910 hn         1 3II       0.312500
     71 H34          4.7050     1.0840    -1.1310 h1         1 3II       0.061700
     72 H34A         5.8120     1.8150     0.0470 h1         1 3II       0.061700
     73 H35          4.8690     0.3320     1.8410 hc         1 3II       0.064700
     74 H35A         3.8030    -0.4230     0.6810 hc         1 3II       0.064700
     75 H37          7.1910    -0.2800     2.0300 ha         1 3II       0.118000
     76 H38          9.0290    -1.8500     1.4570 ha         1 3II       0.134000
     77 H41          6.7260    -3.3600    -1.8600 ha         1 3II       0.146000
@<TRIPOS>BOND
     1     1     2 ar  
     2     1    19 ar  
     3     1    44 1   
     4     2     3 1   
     5     2     4 ar  
     6     3     7 2   
     7     3     8 1   
     8     4    15 ar  
     9     4    17 1   
    10     5     6 1   
    11     5    16 1   
    12     6    45 1   
    13     6    46 1   
    14     6    47 1   
    15     8    10 1   
    16     8    11 1   
    17     9    10 1   
    18     9    12 1   
    19     9    48 1   
    20     9    49 1   
    21    10    50 1   
    22    10    51 1   
    23    11    13 1   
    24    11    52 1   
    25    11    53 1   
    26    12    13 1   
    27    12    14 1   
    28    12    20 1   
    29    13    54 1   
    30    13    55 1   
    31    14    21 1   
    32    14    22 2   
    33    15    16 ar  
    34    15    56 1   
    35    16    19 ar  
    36    17    18 1   
    37    18    57 1   
    38    18    58 1   
    39    18    59 1   
    40    19    60 1   
    41    20    23 1   
    42    20    24 1   
    43    21    23 1   
    44    21    25 1   
    45    23    61 1   
    46    23    62 1   
    47    24    26 ar  
    48    24    27 ar  
    49    25    29 1   
    50    25    63 1   
    51    25    64 1   
    52    26    31 ar  
    53    26    65 1   
    54    27    28 ar  
    55    27    66 1   
    56    28    30 ar  
    57    28    67 1   
    58    29    32 2   
    59    29    33 1   
    60    30    31 ar  
    61    30    68 1   
    62    31    69 1   
    63    33    34 1   
    64    33    70 1   
    65    34    35 1   
    66    34    71 1   
    67    34    72 1   
    68    35    36 1   
    69    35    73 1   
    70    35    74 1   
    71    36    37 ar  
    72    36    42 ar  
    73    37    38 ar  
    74    37    75 1   
    75    38    39 ar  
    76    38    76 1   
    77    39    40 1   
    78    39    41 ar  
    79    41    42 ar  
    80    41    77 1   
    81    42    43 1   
@<TRIPOS>SUBSTRUCTURE
     1 3II         1 TEMP              0 ****  ****    0 ROOT
