@<TRIPOS>MOLECULE
3II
   77    81     1     0     0
SMALL
abcg2


@<TRIPOS>ATOM
      1 C1          -4.2660    -3.4910     1.3000 ca         1 3II      -0.006000
      2 C2          -4.4980    -2.1970     0.8730 ca         1 3II      -0.213600
      3 C3          -4.4600    -1.0660     1.8550 c          1 3II       0.638700
      4 C4          -4.8800    -1.9840    -0.4580 ca         1 3II       0.200100
      5 O5          -4.8910    -5.3220    -1.8020 os         1 3II      -0.341100
      6 C6          -4.6590    -6.6640    -1.4170 c3         1 3II       0.148900
      7 O7          -5.4210    -0.8730     2.5900 o          1 3II      -0.601100
      8 N8          -3.3320    -0.3360     1.9090 n          1 3II      -0.400800
      9 C9          -1.9410     0.7490     0.2150 c6         1 3II      -0.098900
     10 C10         -2.1820    -0.5070     1.0420 c6         1 3II       0.102000
     11 C11         -3.1810     0.7520     2.8580 c6         1 3II       0.102000
     12 C12         -1.8880     2.0390     1.0590 c5         1 3II       0.194200
     13 C13         -2.9880     2.0800     2.1360 c6         1 3II      -0.098900
     14 C14         -0.5230     2.1100     1.7320 c          1 3II       0.565000
     15 C15         -4.9990    -3.0550    -1.3290 ca         1 3II      -0.243000
     16 C16         -4.7480    -4.3550    -0.8790 ca         1 3II       0.189100
     17 O17         -5.1030    -0.7040    -0.8030 os         1 3II      -0.337100
     18 C18         -5.4720    -0.4180    -2.1390 c3         1 3II       0.143900
     19 C19         -4.3770    -4.5800     0.4420 ca         1 3II      -0.241000
     20 N20         -1.8670     3.2380     0.2300 nh         1 3II      -0.855400
     21 N21          0.1200     3.2010     1.2910 n          1 3II      -0.399800
     22 O22         -0.0780     1.3130     2.5370 o          1 3II      -0.539000
     23 C23         -0.5880     3.9050     0.2630 c5         1 3II       0.404200
     24 C24         -2.8230     3.6590    -0.6650 ca         1 3II       0.354000
     25 C25          1.5220     3.3880     1.5000 c3         1 3II       0.023000
     26 C26         -2.5630     4.7760    -1.4810 ca         1 3II      -0.190000
     27 C27         -4.0770     3.0390    -0.8160 ca         1 3II      -0.190000
     28 C28         -5.0100     3.5280    -1.7160 ca         1 3II      -0.069500
     29 C29          2.3340     2.4340     0.6220 c          1 3II       0.575100
     30 C30         -4.7450     4.6350    -2.5090 ca         1 3II      -0.161000
     31 C31         -3.5080     5.2480    -2.3790 ca         1 3II      -0.069500
     32 O32          1.8050     1.7510    -0.2370 o          1 3II      -0.588100
     33 N33          3.6520     2.4470     0.8680 ns         1 3II      -0.505900
     34 C34          4.5950     1.6030     0.1720 c3         1 3II       0.105000
     35 C35          4.7640     0.2360     0.8430 c3         1 3II      -0.056100
     36 C36          5.7560    -0.6150     0.1070 ca         1 3II      -0.069300
     37 C37          7.0820    -0.6740     0.5280 ca         1 3II      -0.096000
     38 C38          8.0400    -1.4190    -0.1390 ca         1 3II      -0.102000
     39 C39          7.6650    -2.1300    -1.2660 ca         1 3II       0.125000
     40 CL40         8.8400    -3.0730    -2.1160 cl         1 3II      -0.192000
     41 C41          6.3590    -2.1030    -1.7270 ca         1 3II      -0.098000
     42 C42          5.4270    -1.3440    -1.0340 ca         1 3II       0.127000
     43 CL43         3.8000    -1.3310    -1.6320 cl         1 3II      -0.180000
     44 H1          -3.9780    -3.6680     2.3290 ha         1 3II       0.123000
     45 H6          -3.6290    -6.8220    -1.0890 h1         1 3II       0.042700
     46 H6A         -5.3350    -6.9820    -0.6200 h1         1 3II       0.042700
     47 H6B         -4.8450    -7.2730    -2.2980 h1         1 3II       0.042700
     48 H9          -1.0060     0.6450    -0.3420 hc         1 3II       0.066450
     49 H9A         -2.7360     0.8360    -0.5250 hc         1 3II       0.066450
     50 H10         -1.3100    -0.7370     1.6570 h1         1 3II       0.066700
     51 H10A        -2.3330    -1.3550     0.3780 h1         1 3II       0.066700
     52 H11         -4.0640     0.8060     3.4890 h1         1 3II       0.066700
     53 H11A        -2.3310     0.5330     3.5060 h1         1 3II       0.066700
     54 H13         -3.9380     2.3650     1.6870 hc         1 3II       0.066450
     55 H13A        -2.7560     2.8600     2.8660 hc         1 3II       0.066450
     56 H15         -5.2860    -2.9160    -2.3630 ha         1 3II       0.134000
     57 H18         -6.4070    -0.9090    -2.4150 h1         1 3II       0.044700
     58 H18A        -5.6100     0.6580    -2.1990 h1         1 3II       0.044700
     59 H18B        -4.6930    -0.7120    -2.8460 h1         1 3II       0.044700
     60 H19         -4.1750    -5.5710     0.8210 ha         1 3II       0.123000
     61 H23         -0.0550     3.8440    -0.6950 h2         1 3II       0.047700
     62 H23A        -0.6880     4.9650     0.5230 h2         1 3II       0.047700
     63 H25          1.7880     4.4200     1.2630 h1         1 3II       0.076200
     64 H25A         1.7680     3.2360     2.5520 h1         1 3II       0.076200
     65 H26         -1.6150     5.2940    -1.4290 ha         1 3II       0.117000
     66 H27         -4.3520     2.1690    -0.2380 ha         1 3II       0.117000
     67 H28         -5.9680     3.0270    -1.7910 ha         1 3II       0.107500
     68 H30         -5.4800     5.0080    -3.2080 ha         1 3II       0.114000
     69 H31         -3.2630     6.1120    -2.9830 ha         1 3II       0.107500
     70 HN33         3.9950     2.9910     1.6440 hn         1 3II       0.312500
     71 H34          4.2640     1.4810    -0.8590 h1         1 3II       0.061700
     72 H34A         5.5530     2.1230     0.1430 h1         1 3II       0.061700
     73 H35          5.1100     0.3830     1.8680 hc         1 3II       0.064700
     74 H35A         3.7950    -0.2610     0.9020 hc         1 3II       0.064700
     75 H37          7.3730    -0.1240     1.4150 ha         1 3II       0.118000
     76 H38          9.0610    -1.4460     0.2160 ha         1 3II       0.134000
     77 H41          6.0700    -2.6590    -2.6080 ha         1 3II       0.146000
@<TRIPOS>BOND
     1     1     2 ar  
     2     1    19 ar  
     3     1    44 1   
     4     2     3 1   
     5     2     4 ar  
     6     3     7 2   
     7     3     8 1   
     8     4    15 ar  
     9     4    17 1   
    10     5     6 1   
    11     5    16 1   
    12     6    45 1   
    13     6    46 1   
    14     6    47 1   
    15     8    10 1   
    16     8    11 1   
    17     9    10 1   
    18     9    12 1   
    19     9    48 1   
    20     9    49 1   
    21    10    50 1   
    22    10    51 1   
    23    11    13 1   
    24    11    52 1   
    25    11    53 1   
    26    12    13 1   
    27    12    14 1   
    28    12    20 1   
    29    13    54 1   
    30    13    55 1   
    31    14    21 1   
    32    14    22 2   
    33    15    16 ar  
    34    15    56 1   
    35    16    19 ar  
    36    17    18 1   
    37    18    57 1   
    38    18    58 1   
    39    18    59 1   
    40    19    60 1   
    41    20    23 1   
    42    20    24 1   
    43    21    23 1   
    44    21    25 1   
    45    23    61 1   
    46    23    62 1   
    47    24    26 ar  
    48    24    27 ar  
    49    25    29 1   
    50    25    63 1   
    51    25    64 1   
    52    26    31 ar  
    53    26    65 1   
    54    27    28 ar  
    55    27    66 1   
    56    28    30 ar  
    57    28    67 1   
    58    29    32 2   
    59    29    33 1   
    60    30    31 ar  
    61    30    68 1   
    62    31    69 1   
    63    33    34 1   
    64    33    70 1   
    65    34    35 1   
    66    34    71 1   
    67    34    72 1   
    68    35    36 1   
    69    35    73 1   
    70    35    74 1   
    71    36    37 ar  
    72    36    42 ar  
    73    37    38 ar  
    74    37    75 1   
    75    38    39 ar  
    76    38    76 1   
    77    39    40 1   
    78    39    41 ar  
    79    41    42 ar  
    80    41    77 1   
    81    42    43 1   
@<TRIPOS>SUBSTRUCTURE
     1 3II         1 TEMP              0 ****  ****    0 ROOT
