@<TRIPOS>MOLECULE
3IK
   54    53     1     0     0
SMALL
abcg2


@<TRIPOS>ATOM
      1 C01        -16.8620    29.2630   -38.4600 c3         1 3IK      -0.087100
      2 C02        -17.4080    30.6680   -38.6810 c3         1 3IK       0.163500
      3 C03        -16.8550    31.6590   -37.6640 c3         1 3IK       0.165600
      4 C05        -14.7660    32.5360   -36.8700 c3         1 3IK       0.166300
      5 C06        -14.8820    34.0400   -37.0810 c3         1 3IK      -0.117100
      6 C07        -13.3230    32.0760   -36.9150 c3         1 3IK       0.161600
      7 C09        -12.1290    29.9870   -36.9580 c3         1 3IK       0.176300
      8 C10        -11.8290    28.8870   -35.9570 c3         1 3IK      -0.086100
      9 C11        -12.4850    29.4340   -38.3340 c3         1 3IK       0.132600
     10 C13        -11.6020    28.0590   -40.0760 c3         1 3IK       0.145300
     11 C14        -11.5980    28.9410   -41.3190 c3         1 3IK      -0.120100
     12 C15        -10.5300    26.9800   -40.1740 c3         1 3IK       0.158600
     13 C17        -11.1980    24.8740   -39.1980 c3         1 3IK       0.158600
     14 C18        -12.7070    25.0000   -39.2640 c3         1 3IK       0.121600
     15 C20        -14.5740    25.9170   -38.1500 c3         1 3IK       0.140900
     16 N21        -18.8730    30.6580   -38.5460 n8         1 3IK      -1.009200
     17 O04        -15.4630    31.8090   -37.8820 os         1 3IK      -0.473000
     18 O08        -13.2450    30.7310   -36.4620 os         1 3IK      -0.468000
     19 O12        -11.3370    28.8170   -38.8940 os         1 3IK      -0.454000
     20 O19        -13.1800    25.6630   -38.1040 os         1 3IK      -0.445000
     21 H011       -15.7750    29.2560   -38.5320 hc         1 3IK       0.040700
     22 H013       -17.1460    28.8970   -37.4690 hc         1 3IK       0.040700
     23 H012       -17.2580    28.5730   -39.2080 hc         1 3IK       0.040700
     24 H021       -17.0910    31.0110   -39.6750 h1         1 3IK       0.025700
     25 H031       -17.3720    32.6210   -37.7700 h1         1 3IK       0.030200
     26 H032       -17.0410    31.2860   -36.6480 h1         1 3IK       0.030200
     27 H051       -15.1840    32.2650   -35.8920 h1         1 3IK       0.049700
     28 H063       -14.3830    34.5800   -36.2740 hc         1 3IK       0.042367
     29 H062       -14.4220    34.3270   -38.0290 hc         1 3IK       0.042367
     30 H061       -15.9270    34.3480   -37.0970 hc         1 3IK       0.042367
     31 H072       -12.9580    32.1680   -37.9430 h1         1 3IK       0.036200
     32 H071       -12.7080    32.7200   -36.2760 h1         1 3IK       0.036200
     33 H091       -11.2600    30.6480   -37.0520 h1         1 3IK       0.041700
     34 H102       -11.5440    29.3130   -34.9940 hc         1 3IK       0.049033
     35 H103       -12.7120    28.2600   -35.8170 hc         1 3IK       0.049033
     36 H101       -11.0140    28.2590   -36.3180 hc         1 3IK       0.049033
     37 H112       -12.8480    30.2430   -38.9780 h1         1 3IK       0.032700
     38 H111       -13.2930    28.7010   -38.2260 h1         1 3IK       0.032700
     39 H131       -12.5830    27.5890   -39.9670 h1         1 3IK       0.038700
     40 H142       -12.3360    29.7380   -41.2280 hc         1 3IK       0.041700
     41 H143       -10.6140    29.3930   -41.4620 hc         1 3IK       0.041700
     42 H141       -11.8430    28.3530   -42.2060 hc         1 3IK       0.041700
     43 H152       -10.6710    26.4180   -41.1030 h1         1 3IK       0.047200
     44 H151        -9.5530    27.4680   -40.2190 h1         1 3IK       0.047200
     45 H171       -10.8610    24.3400   -40.0960 h1         1 3IK       0.051700
     46 H172       -10.9230    24.2840   -38.3230 h1         1 3IK       0.051700
     47 H182       -13.0210    25.5430   -40.1630 h1         1 3IK       0.022700
     48 H181       -13.1330    23.9890   -39.3300 h1         1 3IK       0.022700
     49 H203       -14.8410    26.4380   -37.2320 h1         1 3IK       0.030367
     50 H201       -14.8300    26.5490   -39.0080 h1         1 3IK       0.030367
     51 H202       -15.1450    24.9830   -38.2180 h1         1 3IK       0.030367
     52 H212       -19.2530    31.5550   -38.8320 hn         1 3IK       0.395500
     53 H1         -19.2660    29.9690   -39.1790 hn         1 3IK       0.395500
     54 O16        -10.4920    26.1000   -39.0590 os         1 3IK      -0.435000
@<TRIPOS>BOND
     1     1     2 1   
     2     1    21 1   
     3     1    22 1   
     4     1    23 1   
     5     2     3 1   
     6     2    16 1   
     7     2    24 1   
     8     3    17 1   
     9     3    25 1   
    10     3    26 1   
    11     4     5 1   
    12     4     6 1   
    13     4    17 1   
    14     4    27 1   
    15     5    28 1   
    16     5    29 1   
    17     5    30 1   
    18     6    18 1   
    19     6    31 1   
    20     6    32 1   
    21     7     8 1   
    22     7     9 1   
    23     7    18 1   
    24     7    33 1   
    25     8    34 1   
    26     8    35 1   
    27     8    36 1   
    28     9    19 1   
    29     9    37 1   
    30     9    38 1   
    31    10    11 1   
    32    10    12 1   
    33    10    19 1   
    34    10    39 1   
    35    11    40 1   
    36    11    41 1   
    37    11    42 1   
    38    12    43 1   
    39    12    44 1   
    40    12    54 1   
    41    13    14 1   
    42    13    45 1   
    43    13    46 1   
    44    13    54 1   
    45    14    20 1   
    46    14    47 1   
    47    14    48 1   
    48    15    20 1   
    49    15    49 1   
    50    15    50 1   
    51    15    51 1   
    52    16    52 1   
    53    16    53 1   
@<TRIPOS>SUBSTRUCTURE
     1 3IK         1 TEMP              0 ****  ****    0 ROOT
