@<TRIPOS>MOLECULE
3IK
   54    53     1     0     0
SMALL
No Charge or Current Charge


@<TRIPOS>ATOM
      1 C01        -18.0490    29.7950   -37.1690 c3         1 3IK      -0.087100
      2 C02        -18.3360    31.2360   -37.6450 c3         1 3IK       0.163500
      3 C03        -17.3030    32.2690   -37.1000 c3         1 3IK       0.165600
      4 C05        -14.8840    32.7030   -37.0920 c3         1 3IK       0.166300
      5 C06        -14.9770    34.1460   -37.6450 c3         1 3IK      -0.117100
      6 C07        -13.5710    31.9990   -37.5260 c3         1 3IK       0.161600
      7 C09        -12.2300    30.0020   -37.0200 c3         1 3IK       0.176300
      8 C10        -12.1750    28.9290   -35.9130 c3         1 3IK      -0.086100
      9 C11        -12.2710    29.3940   -38.4520 c3         1 3IK       0.132600
     10 C13        -11.0420    27.8100   -39.8670 c3         1 3IK       0.145300
     11 C14        -10.8520    28.7710   -41.0650 c3         1 3IK      -0.120100
     12 C15         -9.8660    26.7980   -39.7430 c3         1 3IK       0.158600
     13 C17        -10.5870    24.4770   -39.2640 c3         1 3IK       0.158600
     14 C18        -11.9330    24.5380   -40.0370 c3         1 3IK       0.121600
     15 C20        -14.2800    25.0460   -39.7350 c3         1 3IK       0.140900
     16 N21        -19.7280    31.6040   -37.2940 n8         1 3IK      -1.009200
     17 O04        -15.9940    31.9310   -37.6090 os         1 3IK      -0.473000
     18 O08        -13.4310    30.7690   -36.7770 os         1 3IK      -0.468000
     19 O12        -11.0890    28.5880   -38.6490 os         1 3IK      -0.454000
     20 O19        -12.9840    24.9190   -39.1280 os         1 3IK      -0.445000
     21 H011       -17.0570    29.4670   -37.5010 hc         1 3IK       0.040700
     22 H013       -18.0810    29.7320   -36.0740 hc         1 3IK       0.040700
     23 H012       -18.7870    29.0940   -37.5780 hc         1 3IK       0.040700
     24 H021       -18.2720    31.2450   -38.7430 h1         1 3IK       0.025700
     25 H031       -17.5980    33.2740   -37.4270 h1         1 3IK       0.030200
     26 H032       -17.3100    32.2480   -36.0020 h1         1 3IK       0.030200
     27 H051       -14.9090    32.7400   -35.9940 h1         1 3IK       0.049700
     28 H063       -14.0740    34.7110   -37.3870 hc         1 3IK       0.042367
     29 H062       -15.0750    34.1400   -38.7370 hc         1 3IK       0.042367
     30 H061       -15.8320    34.6820   -37.2170 hc         1 3IK       0.042367
     31 H072       -13.6070    31.8140   -38.6070 h1         1 3IK       0.036200
     32 H071       -12.7210    32.6640   -37.3210 h1         1 3IK       0.036200
     33 H091       -11.3430    30.6440   -36.9290 h1         1 3IK       0.041700
     34 H102       -12.1950    29.3980   -34.9220 hc         1 3IK       0.049033
     35 H103       -13.0280    28.2450   -35.9910 hc         1 3IK       0.049033
     36 H101       -11.2540    28.3400   -35.9880 hc         1 3IK       0.049033
     37 H112       -12.3080    30.2010   -39.1930 h1         1 3IK       0.032700
     38 H111       -13.1780    28.7830   -38.5590 h1         1 3IK       0.032700
     39 H131       -11.9810    27.2610   -40.0080 h1         1 3IK       0.038700
     40 H142       -11.7440    29.3860   -41.2290 hc         1 3IK       0.041700
     41 H143        -9.9920    29.4320   -40.9030 hc         1 3IK       0.041700
     42 H141       -10.6750    28.2010   -41.9850 hc         1 3IK       0.041700
     43 H152        -9.6570    26.3490   -40.7230 h1         1 3IK       0.047200
     44 H151        -8.9650    27.3470   -39.4380 h1         1 3IK       0.047200
     45 H171        -9.8140    24.0720   -39.9310 h1         1 3IK       0.051700
     46 H172       -10.6960    23.7720   -38.4300 h1         1 3IK       0.051700
     47 H182       -11.8580    25.2380   -40.8790 h1         1 3IK       0.022700
     48 H181       -12.1400    23.5440   -40.4540 h1         1 3IK       0.022700
     49 H203       -15.0260    25.3360   -38.9830 h1         1 3IK       0.030367
     50 H201       -14.2700    25.8140   -40.5190 h1         1 3IK       0.030367
     51 H202       -14.5970    24.0950   -40.1820 h1         1 3IK       0.030367
     52 H212       -19.9690    32.4860   -37.7630 hn         1 3IK       0.395500
     53 H1         -20.3690    30.9260   -37.7230 hn         1 3IK       0.395500
     54 O16        -10.1830    25.7790   -38.7620 os         1 3IK      -0.435000
@<TRIPOS>BOND
     1     1     2 1   
     2     1    21 1   
     3     1    22 1   
     4     1    23 1   
     5     2     3 1   
     6     2    16 1   
     7     2    24 1   
     8     3    17 1   
     9     3    25 1   
    10     3    26 1   
    11     4     5 1   
    12     4     6 1   
    13     4    17 1   
    14     4    27 1   
    15     5    28 1   
    16     5    29 1   
    17     5    30 1   
    18     6    18 1   
    19     6    31 1   
    20     6    32 1   
    21     7     8 1   
    22     7     9 1   
    23     7    18 1   
    24     7    33 1   
    25     8    34 1   
    26     8    35 1   
    27     8    36 1   
    28     9    19 1   
    29     9    37 1   
    30     9    38 1   
    31    10    11 1   
    32    10    12 1   
    33    10    19 1   
    34    10    39 1   
    35    11    40 1   
    36    11    41 1   
    37    11    42 1   
    38    12    43 1   
    39    12    44 1   
    40    12    54 1   
    41    13    14 1   
    42    13    45 1   
    43    13    46 1   
    44    13    54 1   
    45    14    20 1   
    46    14    47 1   
    47    14    48 1   
    48    15    20 1   
    49    15    49 1   
    50    15    50 1   
    51    15    51 1   
    52    16    52 1   
    53    16    53 1   
@<TRIPOS>SUBSTRUCTURE
     1 3IK         1 TEMP              0 ****  ****    0 ROOT
