@<TRIPOS>MOLECULE
3IL
   25    26     1     0     0
SMALL
No Charge or Current Charge


@<TRIPOS>ATOM
      1 N1          -2.0160    -2.0280     0.3580 na         1 3IL      -0.238700
      2 C2          -0.6350    -2.1140     0.0770 cc         1 3IL      -0.200100
      3 C3          -0.2580    -0.8310    -0.3060 cd         1 3IL      -0.074400
      4 C4          -1.5660     1.4030    -0.5520 ca         1 3IL      -0.021000
      5 C5          -2.8560     1.9620    -0.4080 ca         1 3IL      -0.172000
      6 C6          -3.9430     1.1580     0.0150 ca         1 3IL      -0.101000
      7 C7          -3.7500    -0.2120     0.2990 ca         1 3IL      -0.152000
      8 C8          -2.4610    -0.7360     0.1470 ca         1 3IL      -0.053200
      9 C9          -1.4130     0.0400    -0.2630 ca         1 3IL      -0.081800
     10 C10          3.5460     0.1310    -0.0500 c          1 3IL       0.689000
     11 O11          4.2260    -0.8810    -0.1400 o          1 3IL      -0.723000
     12 O12          3.9940     1.2610    -0.2020 o          1 3IL      -0.723000
     13 C13          2.0550    -0.0000     0.4340 c3         1 3IL       0.026300
     14 O14          1.5730     1.2390     1.0220 oh         1 3IL      -0.704000
     15 C15          1.1350    -0.4300    -0.7380 c3         1 3IL      -0.017200
     16 HN1         -2.6030    -2.7980     0.6670 hn         1 3IL       0.332000
     17 H2          -0.0620    -3.0320     0.1620 h4         1 3IL       0.204000
     18 H4          -0.7230     2.0100    -0.8720 ha         1 3IL       0.132000
     19 H5          -3.0140     3.0160    -0.6220 ha         1 3IL       0.098000
     20 H6          -4.9320     1.5980     0.1230 ha         1 3IL       0.090000
     21 H7          -4.5780    -0.8380     0.6250 ha         1 3IL       0.094000
     22 H13          2.0360    -0.7970     1.1900 h1         1 3IL       0.028700
     23 H14          2.2600     1.9090     0.7850 ho         1 3IL       0.469000
     24 H151         1.0870     0.3770    -1.4780 hc         1 3IL       0.048700
     25 H152         1.6010    -1.2790    -1.2530 hc         1 3IL       0.048700
@<TRIPOS>BOND
     1     1     2 1   
     2     1     8 1   
     3     1    16 1   
     4     2     3 2   
     5     2    17 1   
     6     3     9 1   
     7     3    15 1   
     8     4     5 ar  
     9     4     9 ar  
    10     4    18 1   
    11     5     6 ar  
    12     5    19 1   
    13     6     7 ar  
    14     6    20 1   
    15     7     8 ar  
    16     7    21 1   
    17     8     9 ar  
    18    10    11 1   
    19    10    12 1   
    20    10    13 1   
    21    13    14 1   
    22    13    15 1   
    23    13    22 1   
    24    14    23 1   
    25    15    24 1   
    26    15    25 1   
@<TRIPOS>SUBSTRUCTURE
     1 3IL         1 TEMP              0 ****  ****    0 ROOT
