@<TRIPOS>MOLECULE
3IL
   25    26     1     0     0
SMALL
abcg2


@<TRIPOS>ATOM
      1 N1          -2.0570    -2.0290     0.3350 na         1 3IL      -0.238700
      2 C2          -0.7220    -2.1230     0.0460 cc         1 3IL      -0.200100
      3 C3          -0.2270    -0.9020    -0.3180 cd         1 3IL      -0.074400
      4 C4          -1.4880     1.3720    -0.5150 ca         1 3IL      -0.021000
      5 C5          -2.7350     1.9480    -0.3760 ca         1 3IL      -0.172000
      6 C6          -3.8440     1.1870     0.0350 ca         1 3IL      -0.101000
      7 C7          -3.7250    -0.1630     0.3060 ca         1 3IL      -0.152000
      8 C8          -2.4650    -0.7410     0.1550 ca         1 3IL      -0.053200
      9 C9          -1.3350     0.0050    -0.2530 ca         1 3IL      -0.081800
     10 C10          3.4470     0.3260    -0.0600 c          1 3IL       0.689000
     11 O11          4.1290    -0.6180    -0.4900 o          1 3IL      -0.723000
     12 O12          3.7800     1.5310     0.0200 o          1 3IL      -0.723000
     13 C13          2.0150     0.0150     0.4290 c3         1 3IL       0.026300
     14 O14          1.4310     1.1850     0.9370 oh         1 3IL      -0.704000
     15 C15          1.1820    -0.5920    -0.7050 c3         1 3IL      -0.017200
     16 HN1         -2.6420    -2.7980     0.6140 hn         1 3IL       0.332000
     17 H2          -0.2140    -3.0720     0.1160 h4         1 3IL       0.204000
     18 H4          -0.6370     1.9680    -0.8170 ha         1 3IL       0.132000
     19 H5          -2.8660     3.0030    -0.5770 ha         1 3IL       0.098000
     20 H6          -4.8090     1.6670     0.1410 ha         1 3IL       0.090000
     21 H7          -4.5800    -0.7480     0.6210 ha         1 3IL       0.094000
     22 H13          2.0840    -0.7400     1.2270 h1         1 3IL       0.028700
     23 H14          2.1140     1.8550     0.7460 ho         1 3IL       0.469000
     24 H151         1.1870     0.0960    -1.5580 hc         1 3IL       0.048700
     25 H152         1.6810    -1.5040    -1.0370 hc         1 3IL       0.048700
@<TRIPOS>BOND
     1     1     2 1   
     2     1     8 1   
     3     1    16 1   
     4     2     3 2   
     5     2    17 1   
     6     3     9 1   
     7     3    15 1   
     8     4     5 ar  
     9     4     9 ar  
    10     4    18 1   
    11     5     6 ar  
    12     5    19 1   
    13     6     7 ar  
    14     6    20 1   
    15     7     8 ar  
    16     7    21 1   
    17     8     9 ar  
    18    10    11 1   
    19    10    12 1   
    20    10    13 1   
    21    13    14 1   
    22    13    15 1   
    23    13    22 1   
    24    14    23 1   
    25    15    24 1   
    26    15    25 1   
@<TRIPOS>SUBSTRUCTURE
     1 3IL         1 TEMP              0 ****  ****    0 ROOT
