@<TRIPOS>MOLECULE
3IM
   40    40     1     0     0
SMALL
No Charge or Current Charge


@<TRIPOS>ATOM
      1 C12          7.0950   -21.9350    -6.6700 c3         1 3IM      -0.085267
      2 C6           7.5210   -21.1490    -2.8070 ca         1 3IM       0.151100
      3 C11          6.5110   -19.7990    -5.5310 c3         1 3IM      -0.085267
      4 C5           7.3470   -21.8280    -1.5610 ca         1 3IM      -0.124300
      5 C2           6.8070   -23.1230    -4.0370 ca         1 3IM      -0.077000
      6 C1           7.2570   -21.7800    -4.0630 ca         1 3IM      -0.124300
      7 C4           6.8950   -23.1700    -1.6080 ca         1 3IM      -0.077000
      8 C10          8.9310   -20.6110    -5.6330 c3         1 3IM      -0.085267
      9 C15          9.1330   -20.7240    -0.0650 c3         1 3IM      -0.085267
     10 C3           6.6170   -23.8400    -2.8280 ca         1 3IM      -0.116300
     11 C8           7.4470   -21.0400    -5.4410 c3         1 3IM       0.011800
     12 C14          6.7090   -19.9110     0.0410 c3         1 3IM      -0.085267
     13 C7           6.1150   -25.3400    -2.8390 c3         1 3IM      -0.037800
     14 C13          7.3720   -22.0900     1.0410 c3         1 3IM      -0.085267
     15 O1           7.9550   -19.8580    -2.7920 oh         1 3IM      -0.550100
     16 H1           6.0470   -22.2570    -6.6420 hc         1 3IM       0.035589
     17 H2           7.2380   -21.3880    -7.6100 hc         1 3IM       0.035589
     18 H3           7.7370   -22.8230    -6.7130 hc         1 3IM       0.035589
     19 H4           6.7850   -19.0110    -4.8230 hc         1 3IM       0.035589
     20 H5           6.5490   -19.3510    -6.5310 hc         1 3IM       0.035589
     21 H6           5.4710   -20.0860    -5.3310 hc         1 3IM       0.035589
     22 H7           6.5880   -23.6670    -4.9490 ha         1 3IM       0.112000
     23 H8           6.7410   -23.7510    -0.7050 ha         1 3IM       0.112000
     24 H9           9.2400   -19.8340    -4.9270 hc         1 3IM       0.035589
     25 H10          9.6000   -21.4700    -5.5040 hc         1 3IM       0.035589
     26 H11          9.0950   -20.2050    -6.6380 hc         1 3IM       0.035589
     27 H12          9.3670   -20.3630     0.9450 hc         1 3IM       0.035589
     28 H13          9.7870   -21.5800    -0.2710 hc         1 3IM       0.035589
     29 H14          9.4060   -19.9200    -0.7540 hc         1 3IM       0.035589
     30 H15          6.8190   -19.5090     1.0550 hc         1 3IM       0.035589
     31 H16          6.9230   -19.0870    -0.6460 hc         1 3IM       0.035589
     32 H17          5.6580   -20.1950    -0.0930 hc         1 3IM       0.035589
     33 H18          6.9620   -26.0350    -2.8840 hc         1 3IM       0.038033
     34 H19          5.5370   -25.5730    -1.9370 hc         1 3IM       0.038033
     35 H20          5.4710   -25.5380    -3.7040 hc         1 3IM       0.038033
     36 H21          7.5830   -21.5830     1.9910 hc         1 3IM       0.035589
     37 H22          6.3240   -22.4120     1.0750 hc         1 3IM       0.035589
     38 H23          8.0150   -22.9790     1.0020 hc         1 3IM       0.035589
     39 H24          8.0790   -19.6050    -1.8570 ho         1 3IM       0.466000
     40 C9           7.6370   -21.1450    -0.1710 c3         1 3IM       0.011800
@<TRIPOS>BOND
     1     1    11 1   
     2     1    16 1   
     3     1    17 1   
     4     1    18 1   
     5     2     4 ar  
     6     2     6 ar  
     7     2    15 1   
     8     3    11 1   
     9     3    19 1   
    10     3    20 1   
    11     3    21 1   
    12     4     7 ar  
    13     4    40 1   
    14     5     6 ar  
    15     5    10 ar  
    16     5    22 1   
    17     6    11 1   
    18     7    10 ar  
    19     7    23 1   
    20     8    11 1   
    21     8    24 1   
    22     8    25 1   
    23     8    26 1   
    24     9    27 1   
    25     9    28 1   
    26     9    29 1   
    27     9    40 1   
    28    10    13 1   
    29    12    30 1   
    30    12    31 1   
    31    12    32 1   
    32    12    40 1   
    33    13    33 1   
    34    13    34 1   
    35    13    35 1   
    36    14    36 1   
    37    14    37 1   
    38    14    38 1   
    39    14    40 1   
    40    15    39 1   
@<TRIPOS>SUBSTRUCTURE
     1 3IM         1 TEMP              0 ****  ****    0 ROOT
