@<TRIPOS>MOLECULE
3IM
   40    40     1     0     0
SMALL
abcg2


@<TRIPOS>ATOM
      1 C12          7.0600   -21.9510    -6.5670 c3         1 3IM      -0.085267
      2 C6           7.5190   -21.1500    -2.8090 ca         1 3IM       0.151100
      3 C11          6.4940   -19.8250    -5.4660 c3         1 3IM      -0.085267
      4 C5           7.3420   -21.8160    -1.5810 ca         1 3IM      -0.124300
      5 C2           6.8260   -23.0970    -4.0090 ca         1 3IM      -0.077000
      6 C1           7.2550   -21.7740    -4.0430 ca         1 3IM      -0.124300
      7 C4           6.9100   -23.1400    -1.6350 ca         1 3IM      -0.077000
      8 C10          8.8880   -20.6220    -5.5960 c3         1 3IM      -0.085267
      9 C15          9.1170   -20.8340    -0.0690 c3         1 3IM      -0.085267
     10 C3           6.6540   -23.8010    -2.8250 ca         1 3IM      -0.116300
     11 C8           7.4260   -21.0450    -5.3840 c3         1 3IM       0.011800
     12 C14          6.7550   -19.8930    -0.0120 c3         1 3IM      -0.085267
     13 C7           6.2360   -25.2440    -2.8360 c3         1 3IM      -0.037800
     14 C13          7.2700   -22.0870     0.9440 c3         1 3IM      -0.085267
     15 O1           7.9490   -19.8650    -2.8780 oh         1 3IM      -0.550100
     16 H1           6.0200   -22.2790    -6.5330 hc         1 3IM       0.035589
     17 H2           7.1940   -21.3940    -7.4950 hc         1 3IM       0.035589
     18 H3           7.6950   -22.8360    -6.6250 hc         1 3IM       0.035589
     19 H4           6.7100   -19.0720    -4.7140 hc         1 3IM       0.035589
     20 H5           6.5930   -19.3520    -6.4460 hc         1 3IM       0.035589
     21 H6           5.4520   -20.1300    -5.3530 hc         1 3IM       0.035589
     22 H7           6.6170   -23.6140    -4.9350 ha         1 3IM       0.112000
     23 H8           6.7650   -23.6900    -0.7160 ha         1 3IM       0.112000
     24 H9           9.2340   -19.9040    -4.8580 hc         1 3IM       0.035589
     25 H10          9.5470   -21.4910    -5.5620 hc         1 3IM       0.035589
     26 H11          9.0000   -20.1630    -6.5820 hc         1 3IM       0.035589
     27 H12          9.3060   -20.3850     0.9070 hc         1 3IM       0.035589
     28 H13          9.7050   -21.7510    -0.1340 hc         1 3IM       0.035589
     29 H14          9.5200   -20.1470    -0.8140 hc         1 3IM       0.035589
     30 H15          6.9160   -19.5060     0.9960 hc         1 3IM       0.035589
     31 H16          6.9580   -19.0660    -0.6920 hc         1 3IM       0.035589
     32 H17          5.6970   -20.1370    -0.1110 hc         1 3IM       0.035589
     33 H18          7.1010   -25.9090    -2.8860 hc         1 3IM       0.038033
     34 H19          5.6810   -25.5090    -1.9360 hc         1 3IM       0.038033
     35 H20          5.6060   -25.4740    -3.6960 hc         1 3IM       0.038033
     36 H21          7.4770   -21.5750     1.8850 hc         1 3IM       0.035589
     37 H22          6.2150   -22.3660     0.9490 hc         1 3IM       0.035589
     38 H23          7.8660   -23.0000     0.9380 hc         1 3IM       0.035589
     39 H24          8.1750   -19.5180    -2.0130 ho         1 3IM       0.466000
     40 C9           7.6190   -21.1530    -0.2210 c3         1 3IM       0.011800
@<TRIPOS>BOND
     1     1    11 1   
     2     1    16 1   
     3     1    17 1   
     4     1    18 1   
     5     2     4 ar  
     6     2     6 ar  
     7     2    15 1   
     8     3    11 1   
     9     3    19 1   
    10     3    20 1   
    11     3    21 1   
    12     4     7 ar  
    13     4    40 1   
    14     5     6 ar  
    15     5    10 ar  
    16     5    22 1   
    17     6    11 1   
    18     7    10 ar  
    19     7    23 1   
    20     8    11 1   
    21     8    24 1   
    22     8    25 1   
    23     8    26 1   
    24     9    27 1   
    25     9    28 1   
    26     9    29 1   
    27     9    40 1   
    28    10    13 1   
    29    12    30 1   
    30    12    31 1   
    31    12    32 1   
    32    12    40 1   
    33    13    33 1   
    34    13    34 1   
    35    13    35 1   
    36    14    36 1   
    37    14    37 1   
    38    14    38 1   
    39    14    40 1   
    40    15    39 1   
@<TRIPOS>SUBSTRUCTURE
     1 3IM         1 TEMP              0 ****  ****    0 ROOT
