@<TRIPOS>MOLECULE
3IN
  106   110     1     0     0
SMALL
No Charge or Current Charge


@<TRIPOS>ATOM
      1 C1           1.3390    -1.5370     1.7620 c6         1 3IN       0.091000
      2 C2           1.3810    -0.5300     0.5730 c6         1 3IN       0.085500
      3 C3           2.1400    -1.1260    -0.6680 c          1 3IN       0.600100
      4 O4          -1.9890     0.8350    -9.0970 oh         1 3IN      -0.639000
      5 O5           2.9310    -0.5960     3.8840 o          1 3IN      -0.599100
      6 N6          -0.0730    -0.6250     5.8500 nb         1 3IN      -0.602000
      7 C7           2.2830    -4.7690    -1.6660 c3         1 3IN      -0.104433
      8 C8          -0.5310     0.6620     1.5750 c6         1 3IN       0.154800
      9 C9          -0.5020    -0.2690     2.8170 c6         1 3IN       0.102000
     10 C11         -0.4490     0.0060    -2.1730 c3         1 3IN       0.162300
     11 C12         -1.1570     0.8040    -3.2970 c3         1 3IN      -0.102400
     12 C13         -1.0000     0.2150    -4.7330 c3         1 3IN      -0.127700
     13 C14         -1.6700    -1.1700    -4.9430 c3         1 3IN      -0.028100
     14 C15         -1.4940    -1.6910    -6.3670 ca         1 3IN      -0.085300
     15 C16         -0.2070    -1.9860    -6.8630 ca         1 3IN      -0.112500
     16 C19         -2.4490    -2.3500    -8.5140 ca         1 3IN      -0.112000
     17 C20         -2.6140    -1.8780    -7.2000 ca         1 3IN      -0.112500
     18 C21         -1.5120     1.2170    -5.7880 c          1 3IN       0.594100
     19 C22         -0.9080     2.6300    -7.7210 c5         1 3IN       0.082700
     20 C24          0.3910     1.4330    -9.4220 c5         1 3IN      -0.119400
     21 C27         -0.3290     2.6790    11.0680 c6         1 3IN       0.156800
     22 C30          0.3840     3.4610    -7.9820 c5         1 3IN      -0.087700
     23 C32          1.1560    -0.1700     5.4360 ca         1 3IN       0.208500
     24 C33         -0.4410    -0.2710     7.1120 ca         1 3IN       0.359000
     25 C34          0.4030     0.5180     7.9730 ca         1 3IN       0.584900
     26 C35         -0.9470     0.3580    11.5540 c6         1 3IN       0.156800
     27 N1           0.8340    -0.9050     3.0140 n          1 3IN      -0.378800
     28 O1           2.7270    -0.3960    -1.4560 o          1 3IN      -0.588100
     29 N2           2.0790    -2.5030    -0.8370 ns         1 3IN      -0.508900
     30 C4           2.6450    -3.2910    -1.9400 c3         1 3IN       0.139400
     31 C5           2.0210    -2.8630    -3.2940 c3         1 3IN      -0.104433
     32 C6           4.1870    -3.1480    -1.9790 c3         1 3IN      -0.104433
     33 N3          -0.0320    -0.0150     0.3430 n3         1 3IN      -0.717600
     34 O2          -1.2330    -1.1230    -1.7790 oh         1 3IN      -0.639000
     35 C17         -0.0430    -2.4520    -8.1780 ca         1 3IN      -0.112000
     36 C18         -1.1640    -2.6330    -9.0050 ca         1 3IN      -0.114000
     37 O3          -2.6660     1.6240    -5.8070 o          1 3IN      -0.601100
     38 N4          -0.5570     1.6120    -6.7040 ns         1 3IN      -0.503900
     39 C23         -1.0600     1.9180    -9.1060 c5         1 3IN       0.156300
     40 C25          1.3380     2.4420    -8.6870 c5         1 3IN      -0.078400
     41 N7           1.6190     0.9570     7.5650 nb         1 3IN      -0.718000
     42 C36          1.9850     0.5980     6.3010 ca         1 3IN       0.380900
     43 Cl1         -2.0510    -0.8100     7.5990 cl         1 3IN      -0.147000
     44 C26          0.5320     2.2150     9.8500 c6         1 3IN       0.203300
     45 N8          -0.4310     1.6360    12.1350 n3         1 3IN      -0.716600
     46 C37         -0.0900    -0.1410    10.3470 c6         1 3IN       0.203300
     47 N5           0.0590     0.9080     9.2900 nh         1 3IN      -0.751300
     48 H11A         2.3420    -1.9570     1.9240 h1         1 3IN       0.085200
     49 H12          0.6770    -2.3770     1.5080 h1         1 3IN       0.085200
     50 H2           2.0110     0.3130     0.8900 h1         1 3IN       0.030700
     51 HO4         -1.7100     0.2420    -8.3660 ho         1 3IN       0.450000
     52 H71          2.6780    -5.4220    -2.4540 hc         1 3IN       0.044811
     53 H72          2.7010    -5.1050    -0.7090 hc         1 3IN       0.044811
     54 H73          1.1950    -4.9070    -1.6290 hc         1 3IN       0.044811
     55 H81          0.0800     1.5520     1.7860 h1         1 3IN       0.037700
     56 H82         -1.5640     1.0090     1.4290 h1         1 3IN       0.037700
     57 H91         -0.7980     0.3320     3.6840 h1         1 3IN       0.073700
     58 H92         -1.2570    -1.0580     2.6930 h1         1 3IN       0.073700
     59 H11          0.5230    -0.3230    -2.5570 h1         1 3IN       0.097700
     60 H121        -0.7320     1.8160    -3.3070 hc         1 3IN       0.054200
     61 H122        -2.2200     0.9210    -3.0530 hc         1 3IN       0.054200
     62 H13          0.0750     0.0770    -4.9040 hc         1 3IN       0.057700
     63 H141        -1.2350    -1.8990    -4.2520 hc         1 3IN       0.066200
     64 H142        -2.7340    -1.0990    -4.6840 hc         1 3IN       0.066200
     65 H16          0.6670    -1.8560    -6.2290 ha         1 3IN       0.118500
     66 H19         -3.3180    -2.4920    -9.1530 ha         1 3IN       0.116000
     67 H20         -3.6140    -1.6560    -6.8330 ha         1 3IN       0.118500
     68 H22         -1.7700     3.2600    -7.4610 h1         1 3IN       0.089700
     69 H241         0.5760     1.4120   -10.5020 hc         1 3IN       0.051700
     70 H242         0.5650     0.4130    -9.0580 hc         1 3IN       0.051700
     71 H271         0.1120     3.6000    11.4770 h1         1 3IN       0.043450
     72 H272        -1.3330     2.9400    10.7020 h1         1 3IN       0.043450
     73 H30          0.1410     4.2660    -8.6870 hc         1 3IN       0.057700
     74 H351        -0.9620    -0.4300    12.3200 h1         1 3IN       0.043450
     75 H352        -1.9840     0.4920    11.2110 h1         1 3IN       0.043450
     76 HN2          1.5290    -3.0080    -0.1550 hn         1 3IN       0.310500
     77 H51          0.9270    -2.9130    -3.2520 hc         1 3IN       0.044811
     78 H52          2.3040    -1.8400    -3.5670 hc         1 3IN       0.044811
     79 H53          2.3580    -3.5230    -4.1020 hc         1 3IN       0.044811
     80 H61          4.6260    -3.4040    -1.0080 hc         1 3IN       0.044811
     81 H62          4.6190    -3.8170    -2.7330 hc         1 3IN       0.044811
     82 H63          4.4930    -2.1270    -2.2320 hc         1 3IN       0.044811
     83 HO2         -1.0850    -1.1440    -0.8020 ho         1 3IN       0.428000
     84 H17          0.9530    -2.6740    -8.5560 ha         1 3IN       0.116000
     85 H18         -1.0370    -2.9950   -10.0230 ha         1 3IN       0.114000
     86 HN4          0.3710     1.2210    -6.6060 hn         1 3IN       0.313500
     87 H23         -1.3670     2.6620    -9.8560 h1         1 3IN       0.074700
     88 H251         2.0160     2.9480    -9.3850 hc         1 3IN       0.043200
     89 H252         1.9750     1.9170    -7.9650 hc         1 3IN       0.043200
     90 H36          2.9650     0.9420     5.9740 h4         1 3IN       0.046100
     91 H261         1.5800     2.1270    10.1730 h1         1 3IN       0.057950
     92 H262         0.4910     3.0000     9.0810 h1         1 3IN       0.057950
     93 H371        -0.5570    -1.0490     9.9410 h1         1 3IN       0.057950
     94 H372         0.9030    -0.4310    10.7210 h1         1 3IN       0.057950
     95 H281        -1.2260     1.3170    14.0860 h1         1 3IN       0.033033
     96 H282        -0.7760     2.9990    13.7350 h1         1 3IN       0.033033
     97 H283        -2.2530     2.3080    13.0210 h1         1 3IN       0.033033
     98 C10         -0.2150     0.8340    -0.8770 c3         1 3IN       0.145800
     99 C31          1.7180    -0.5420     4.0660 c          1 3IN       0.524600
    100 C29          0.9940     4.1740    -6.7500 c3         1 3IN      -0.080100
    101 C28         -1.2140     2.0890    13.3040 c3         1 3IN       0.152100
    102 H101         0.6380     1.5110    -1.0160 h1         1 3IN       0.034700
    103 H102        -1.1010     1.4700    -0.7440 h1         1 3IN       0.034700
    104 H291         1.8660     4.7740    -7.0380 hc         1 3IN       0.035700
    105 H292         0.2640     4.8490    -6.2870 hc         1 3IN       0.035700
    106 H293         1.3220     3.4590    -5.9860 hc         1 3IN       0.035700
@<TRIPOS>BOND
     1     1     2 1   
     2     1    27 1   
     3     1    48 1   
     4     1    49 1   
     5     2     3 1   
     6     2    33 1   
     7     2    50 1   
     8     3    28 2   
     9     3    29 1   
    10     4    39 1   
    11     4    51 1   
    12     5    99 2   
    13     6    23 ar  
    14     6    24 ar  
    15     7    30 1   
    16     7    52 1   
    17     7    53 1   
    18     7    54 1   
    19     8     9 1   
    20     8    33 1   
    21     8    55 1   
    22     8    56 1   
    23     9    27 1   
    24     9    57 1   
    25     9    58 1   
    26    10    11 1   
    27    10    34 1   
    28    10    59 1   
    29    10    98 1   
    30    11    12 1   
    31    11    60 1   
    32    11    61 1   
    33    12    13 1   
    34    12    18 1   
    35    12    62 1   
    36    13    14 1   
    37    13    63 1   
    38    13    64 1   
    39    14    15 ar  
    40    14    17 ar  
    41    15    35 ar  
    42    15    65 1   
    43    16    17 ar  
    44    16    36 ar  
    45    16    66 1   
    46    17    67 1   
    47    18    37 2   
    48    18    38 1   
    49    19    22 1   
    50    19    38 1   
    51    19    39 1   
    52    19    68 1   
    53    20    39 1   
    54    20    40 1   
    55    20    69 1   
    56    20    70 1   
    57    21    44 1   
    58    21    45 1   
    59    21    71 1   
    60    21    72 1   
    61    22    40 1   
    62    22    73 1   
    63    22   100 1   
    64    23    42 ar  
    65    23    99 1   
    66    24    25 ar  
    67    24    43 1   
    68    25    41 ar  
    69    25    47 1   
    70    26    45 1   
    71    26    46 1   
    72    26    74 1   
    73    26    75 1   
    74    27    99 1   
    75    29    30 1   
    76    29    76 1   
    77    30    31 1   
    78    30    32 1   
    79    31    77 1   
    80    31    78 1   
    81    31    79 1   
    82    32    80 1   
    83    32    81 1   
    84    32    82 1   
    85    33    98 1   
    86    34    83 1   
    87    35    36 ar  
    88    35    84 1   
    89    36    85 1   
    90    38    86 1   
    91    39    87 1   
    92    40    88 1   
    93    40    89 1   
    94    41    42 ar  
    95    42    90 1   
    96    44    47 1   
    97    44    91 1   
    98    44    92 1   
    99    45   101 1   
   100    46    47 1   
   101    46    93 1   
   102    46    94 1   
   103    95   101 1   
   104    96   101 1   
   105    97   101 1   
   106    98   102 1   
   107    98   103 1   
   108   100   104 1   
   109   100   105 1   
   110   100   106 1   
@<TRIPOS>SUBSTRUCTURE
     1 3IN         1 TEMP              0 ****  ****    0 ROOT
