@<TRIPOS>MOLECULE
3IN
  106   110     1     0     0
SMALL
abcg2


@<TRIPOS>ATOM
      1 C1           1.9000    -1.5590     1.7770 c6         1 3IN       0.091000
      2 C2           1.8350    -0.4940     0.6820 c6         1 3IN       0.085500
      3 C3           2.4690    -1.0820    -0.5820 c          1 3IN       0.600100
      4 O4          -1.6520     1.8080    -8.6550 oh         1 3IN      -0.639000
      5 O5           3.1290    -0.6200     4.0660 o          1 3IN      -0.599100
      6 N6           0.1500    -1.2020     5.6760 nb         1 3IN      -0.602000
      7 C7           5.3970     0.3590    -2.3240 c3         1 3IN      -0.104433
      8 C8          -0.2530     0.2590     1.6150 c6         1 3IN       0.154800
      9 C9          -0.1840    -0.8010     2.6990 c6         1 3IN       0.102000
     10 C11         -0.5170     0.1770    -1.8440 c3         1 3IN       0.162300
     11 C12         -0.5340     1.1390    -3.0290 c3         1 3IN      -0.102400
     12 C13         -1.1320     0.5690    -4.3220 c3         1 3IN      -0.127700
     13 C14         -2.6700     0.5790    -4.3410 c3         1 3IN      -0.028100
     14 C15         -3.2430     0.0240    -5.6160 ca         1 3IN      -0.085300
     15 C16         -3.0370    -1.3110    -5.9650 ca         1 3IN      -0.112500
     16 C19         -4.5000     0.3120    -7.6680 ca         1 3IN      -0.112000
     17 C20         -3.9810     0.8270    -6.4830 ca         1 3IN      -0.112500
     18 C21         -0.6210     1.3790    -5.5040 c          1 3IN       0.594100
     19 C22          0.5600     1.2100    -7.6780 c5         1 3IN       0.082700
     20 C24         -0.4510    -0.2620    -9.3070 c5         1 3IN      -0.119400
     21 C27         -1.3350     1.6580    10.7020 c6         1 3IN       0.156800
     22 C30          1.6720     0.2910    -8.1890 c5         1 3IN      -0.087700
     23 C32          1.1590    -0.4140     5.3060 ca         1 3IN       0.208500
     24 C33         -0.4080    -1.0040     6.8290 ca         1 3IN       0.359000
     25 C34          0.0380    -0.0040     7.7330 ca         1 3IN       0.584900
     26 C35         -1.5480    -0.6920    10.9950 c6         1 3IN       0.156800
     27 N1           1.2080    -1.1200     2.9710 n          1 3IN      -0.378800
     28 O1           2.0130    -2.0950    -1.0930 o          1 3IN      -0.588100
     29 N2           3.5300    -0.4080    -1.0410 ns         1 3IN      -0.508900
     30 C4           4.2980    -0.7000    -2.2590 c3         1 3IN       0.139400
     31 C5           4.9390    -2.0860    -2.1800 c3         1 3IN      -0.104433
     32 C6           3.4040    -0.5790    -3.4950 c3         1 3IN      -0.104433
     33 N3           0.4510    -0.1490     0.4150 n3         1 3IN      -0.717600
     34 O2          -1.8030    -0.2260    -1.4180 oh         1 3IN      -0.639000
     35 C17         -3.5480    -1.8270    -7.1470 ca         1 3IN      -0.112000
     36 C18         -4.2820    -1.0160    -8.0050 ca         1 3IN      -0.114000
     37 O3          -0.7130     2.5980    -5.5300 o          1 3IN      -0.601100
     38 N4          -0.0630     0.6560    -6.4910 ns         1 3IN      -0.503900
     39 C23         -0.4050     1.2120    -8.8750 c5         1 3IN       0.156300
     40 C25          0.9110    -0.8530    -8.8900 c5         1 3IN      -0.078400
     41 N7           0.9880     0.8200     7.3140 nb         1 3IN      -0.718000
     42 C36          1.5480     0.6280     6.1290 ca         1 3IN       0.380900
     43 CL1         -1.8170    -1.9480     7.1750 cl         1 3IN      -0.147000
     44 C26         -0.2810     1.4570     9.6290 c6         1 3IN       0.203300
     45 N8          -1.3230     0.5740    11.6630 n3         1 3IN      -0.716600
     46 C37         -0.4960    -0.9210     9.9320 c6         1 3IN       0.203300
     47 N5          -0.5100     0.1800     8.9700 nh         1 3IN      -0.751300
     48 H11A         2.9340    -1.7990     2.0120 h1         1 3IN       0.085200
     49 H12          1.4090    -2.4680     1.4210 h1         1 3IN       0.085200
     50 H2           2.4160     0.3810     1.0240 h1         1 3IN       0.030700
     51 HO4         -2.1420     1.2760    -8.0170 ho         1 3IN       0.450000
     52 H71          6.0120     0.2100    -3.2100 hc         1 3IN       0.044811
     53 H72          4.9760     1.3660    -2.3750 hc         1 3IN       0.044811
     54 H73          6.0480     0.3030    -1.4500 hc         1 3IN       0.044811
     55 H81          0.1400     1.2060     2.0250 h1         1 3IN       0.037700
     56 H82         -1.3020     0.4290     1.3670 h1         1 3IN       0.037700
     57 H91         -0.6880    -0.4370     3.5880 h1         1 3IN       0.073700
     58 H92         -0.6970    -1.7100     2.3750 h1         1 3IN       0.073700
     59 H11         -0.0150    -0.7440    -2.1520 h1         1 3IN       0.097700
     60 H121         0.5070     1.4150    -3.2200 hc         1 3IN       0.054200
     61 H122        -1.0450     2.0690    -2.7560 hc         1 3IN       0.054200
     62 H13         -0.7930    -0.4680    -4.4240 hc         1 3IN       0.057700
     63 H141        -3.0300    -0.0050    -3.4940 hc         1 3IN       0.066200
     64 H142        -3.0220     1.6030    -4.1910 hc         1 3IN       0.066200
     65 H16         -2.4710    -1.9580    -5.3040 ha         1 3IN       0.118500
     66 H19         -5.0710     0.9540    -8.3270 ha         1 3IN       0.116000
     67 H20         -4.1590     1.8650    -6.2280 ha         1 3IN       0.118500
     68 H22          0.9250     2.2090    -7.4400 h1         1 3IN       0.089700
     69 H241        -0.6490    -0.3620   -10.3740 hc         1 3IN       0.051700
     70 H242        -1.2690    -0.7720    -8.7880 hc         1 3IN       0.051700
     71 H271        -1.1280     2.5980    11.2190 h1         1 3IN       0.043450
     72 H272        -2.3220     1.7640    10.2190 h1         1 3IN       0.043450
     73 H30          2.2040     0.8670    -8.9530 hc         1 3IN       0.057700
     74 H351        -1.4880    -1.5010    11.7270 h1         1 3IN       0.043450
     75 H352        -2.5490    -0.7420    10.5320 h1         1 3IN       0.043450
     76 HN2          3.7880     0.4300    -0.5440 hn         1 3IN       0.310500
     77 H51          5.5590    -2.1710    -1.2860 hc         1 3IN       0.044811
     78 H52          4.1960    -2.8800    -2.1610 hc         1 3IN       0.044811
     79 H53          5.5820    -2.2440    -3.0470 hc         1 3IN       0.044811
     80 H61          2.9480     0.4110    -3.5470 hc         1 3IN       0.044811
     81 H62          3.9970    -0.7150    -4.4010 hc         1 3IN       0.044811
     82 H63          2.6070    -1.3220    -3.4990 hc         1 3IN       0.044811
     83 HO2         -2.2990     0.5600    -1.1630 ho         1 3IN       0.428000
     84 H17         -3.3750    -2.8650    -7.3980 ha         1 3IN       0.116000
     85 H18         -4.6810    -1.4170    -8.9270 ha         1 3IN       0.114000
     86 HN4         -0.0270    -0.3430    -6.3630 hn         1 3IN       0.313500
     87 H23          0.0710     1.8050    -9.6640 h1         1 3IN       0.074700
     88 H251         1.4780    -1.2400    -9.7370 hc         1 3IN       0.043200
     89 H252         0.7740    -1.6920    -8.2040 hc         1 3IN       0.043200
     90 H36          2.3200     1.3260     5.8300 h4         1 3IN       0.046100
     91 H261         0.7200     1.5000    10.0740 h1         1 3IN       0.057950
     92 H262        -0.3550     2.2630     8.9000 h1         1 3IN       0.057950
     93 H371        -0.6730    -1.8740     9.4430 h1         1 3IN       0.057950
     94 H372         0.4940    -0.9750    10.4030 h1         1 3IN       0.057950
     95 H281        -2.2140    -0.0150    13.4570 h1         1 3IN       0.033033
     96 H282        -2.0500     1.7280    13.2430 h1         1 3IN       0.033033
     97 H283        -3.3170     0.8490    12.3730 h1         1 3IN       0.033033
     98 C10          0.2740     0.7870    -0.6870 c3         1 3IN       0.145800
     99 C31          1.9080    -0.7100     4.0470 c          1 3IN       0.524600
    100 C29          2.6870    -0.1650    -7.1560 c3         1 3IN      -0.080100
    101 C28         -2.2750     0.7940    12.7270 c3         1 3IN       0.152100
    102 H101         1.2400     1.1410    -1.0610 h1         1 3IN       0.034700
    103 H102        -0.2430     1.6920    -0.3420 h1         1 3IN       0.034700
    104 H291         3.4740    -0.7550    -7.6300 hc         1 3IN       0.035700
    105 H292         3.1590     0.6820    -6.6580 hc         1 3IN       0.035700
    106 H293         2.2370    -0.7940    -6.3860 hc         1 3IN       0.035700
@<TRIPOS>BOND
     1     1     2 1   
     2     1    27 1   
     3     1    48 1   
     4     1    49 1   
     5     2     3 1   
     6     2    33 1   
     7     2    50 1   
     8     3    28 2   
     9     3    29 1   
    10     4    39 1   
    11     4    51 1   
    12     5    99 2   
    13     6    23 ar  
    14     6    24 ar  
    15     7    30 1   
    16     7    52 1   
    17     7    53 1   
    18     7    54 1   
    19     8     9 1   
    20     8    33 1   
    21     8    55 1   
    22     8    56 1   
    23     9    27 1   
    24     9    57 1   
    25     9    58 1   
    26    10    11 1   
    27    10    34 1   
    28    10    59 1   
    29    10    98 1   
    30    11    12 1   
    31    11    60 1   
    32    11    61 1   
    33    12    13 1   
    34    12    18 1   
    35    12    62 1   
    36    13    14 1   
    37    13    63 1   
    38    13    64 1   
    39    14    15 ar  
    40    14    17 ar  
    41    15    35 ar  
    42    15    65 1   
    43    16    17 ar  
    44    16    36 ar  
    45    16    66 1   
    46    17    67 1   
    47    18    37 2   
    48    18    38 1   
    49    19    22 1   
    50    19    38 1   
    51    19    39 1   
    52    19    68 1   
    53    20    39 1   
    54    20    40 1   
    55    20    69 1   
    56    20    70 1   
    57    21    44 1   
    58    21    45 1   
    59    21    71 1   
    60    21    72 1   
    61    22    40 1   
    62    22    73 1   
    63    22   100 1   
    64    23    42 ar  
    65    23    99 1   
    66    24    25 ar  
    67    24    43 1   
    68    25    41 ar  
    69    25    47 1   
    70    26    45 1   
    71    26    46 1   
    72    26    74 1   
    73    26    75 1   
    74    27    99 1   
    75    29    30 1   
    76    29    76 1   
    77    30    31 1   
    78    30    32 1   
    79    31    77 1   
    80    31    78 1   
    81    31    79 1   
    82    32    80 1   
    83    32    81 1   
    84    32    82 1   
    85    33    98 1   
    86    34    83 1   
    87    35    36 ar  
    88    35    84 1   
    89    36    85 1   
    90    38    86 1   
    91    39    87 1   
    92    40    88 1   
    93    40    89 1   
    94    41    42 ar  
    95    42    90 1   
    96    44    47 1   
    97    44    91 1   
    98    44    92 1   
    99    45   101 1   
   100    46    47 1   
   101    46    93 1   
   102    46    94 1   
   103    95   101 1   
   104    96   101 1   
   105    97   101 1   
   106    98   102 1   
   107    98   103 1   
   108   100   104 1   
   109   100   105 1   
   110   100   106 1   
@<TRIPOS>SUBSTRUCTURE
     1 3IN         1 TEMP              0 ****  ****    0 ROOT
