@<TRIPOS>MOLECULE
3IO
   23    24     1     0     0
SMALL
No Charge or Current Charge


@<TRIPOS>ATOM
      1 CAO         -1.1870     0.0260     0.3440 ca         1 3IO      -0.083800
      2 CAG         -1.0920    -1.3460     0.6150 ca         1 3IO      -0.030000
      3 CAE         -2.2280    -2.1440     0.3540 ca         1 3IO      -0.165000
      4 CAD         -3.4120    -1.5620    -0.1600 ca         1 3IO      -0.101000
      5 CAF         -3.4710    -0.1750    -0.4190 ca         1 3IO      -0.148000
      6 CAN         -2.3290     0.5900    -0.1510 ca         1 3IO      -0.049200
      7 NAJ         -2.1330     1.9490    -0.3160 na         1 3IO      -0.236700
      8 CAH         -0.8230     2.2980     0.0810 cc         1 3IO      -0.191100
      9 CAM         -0.2360     1.1060     0.4900 cd         1 3IO      -0.078400
     10 CAI          1.1760     0.9610     0.9960 c3         1 3IO      -0.134200
     11 CAL          2.1520     0.5020    -0.1050 c          1 3IO       0.425100
     12 OAB          2.5470     1.2960    -0.9640 o          1 3IO      -0.549100
     13 CAK          2.6140    -1.0480    -0.0840 c          1 3IO       0.647000
     14 OAC          2.7660    -1.6290    -1.1570 o          1 3IO      -0.698000
     15 OAA          2.8260    -1.5850     1.0010 o          1 3IO      -0.698000
     16 HAG         -0.1790    -1.7830     1.0120 ha         1 3IO       0.126000
     17 HAE         -2.1920    -3.2130     0.5520 ha         1 3IO       0.099000
     18 HAD         -4.2810    -2.1860    -0.3570 ha         1 3IO       0.092000
     19 HAF         -4.3750     0.2830    -0.8140 ha         1 3IO       0.096000
     20 HNAJ        -2.8310     2.5950    -0.6710 hn         1 3IO       0.333000
     21 HAH         -0.4340     3.3110     0.0390 h4         1 3IO       0.204000
     22 HAI1         1.1770     0.2350     1.8150 hc         1 3IO       0.069700
     23 HAI2         1.5200     1.9290     1.3790 hc         1 3IO       0.069700
@<TRIPOS>BOND
     1     1     2 ar  
     2     1     6 ar  
     3     1     9 1   
     4     2     3 ar  
     5     2    16 1   
     6     3     4 ar  
     7     3    17 1   
     8     4     5 ar  
     9     4    18 1   
    10     5     6 ar  
    11     5    19 1   
    12     6     7 1   
    13     7     8 1   
    14     7    20 1   
    15     8     9 2   
    16     8    21 1   
    17     9    10 1   
    18    10    11 1   
    19    10    22 1   
    20    10    23 1   
    21    11    12 2   
    22    11    13 1   
    23    13    14 1   
    24    13    15 1   
@<TRIPOS>SUBSTRUCTURE
     1 3IO         1 TEMP              0 ****  ****    0 ROOT
