@<TRIPOS>MOLECULE
3IO
   23    24     1     0     0
SMALL
bcc


@<TRIPOS>ATOM
      1 CAO         -1.2840    -0.0550     0.2830 ca         1 3IO      -0.083800
      2 CAG         -1.3580    -1.4480     0.3880 ca         1 3IO      -0.048000
      3 CAE         -2.5610    -2.0770     0.1310 ca         1 3IO      -0.183000
      4 CAD         -3.6990    -1.3390    -0.2360 ca         1 3IO      -0.119000
      5 CAF         -3.6560     0.0380    -0.3500 ca         1 3IO      -0.166000
      6 CAN         -2.4410     0.6680    -0.0860 ca         1 3IO      -0.049200
      7 NAJ         -2.1010     1.9880    -0.1150 na         1 3IO      -0.186400
      8 CAH         -0.7820     2.1220     0.2240 cc         1 3IO      -0.141100
      9 CAM         -0.2330     0.8980     0.4780 cd         1 3IO      -0.078400
     10 CAI          1.1700     0.6070     0.8740 c3         1 3IO      -0.134200
     11 CAL          1.9910    -0.0730    -0.2000 c          1 3IO       0.425100
     12 OAB          1.5350    -0.3440    -1.2840 o          1 3IO      -0.549100
     13 CAK          3.4690    -0.4160     0.1520 c          1 3IO       0.857600
     14 OAC          4.1200    -0.9670    -0.7450 o          1 3IO      -0.803300
     15 OAA          3.8320    -0.0980     1.2980 o          1 3IO      -0.803300
     16 HAG         -0.4860    -2.0280     0.6680 ha         1 3IO       0.144000
     17 HAE         -2.6320    -3.1540     0.2090 ha         1 3IO       0.117000
     18 HAD         -4.6270    -1.8590    -0.4370 ha         1 3IO       0.110000
     19 HAF         -4.5350     0.6030    -0.6350 ha         1 3IO       0.114000
     20 HNAJ        -2.7190     2.7500    -0.3360 hn         1 3IO       0.282700
     21 HAH         -0.3240     3.0980     0.2640 h4         1 3IO       0.154000
     22 HAI1         1.2050    -0.0280     1.7660 hc         1 3IO       0.069700
     23 HAI2         1.6910     1.5220     1.1680 hc         1 3IO       0.069700
@<TRIPOS>BOND
     1     1     2 ar  
     2     1     6 ar  
     3     1     9 1   
     4     2     3 ar  
     5     2    16 1   
     6     3     4 ar  
     7     3    17 1   
     8     4     5 ar  
     9     4    18 1   
    10     5     6 ar  
    11     5    19 1   
    12     6     7 1   
    13     7     8 1   
    14     7    20 1   
    15     8     9 2   
    16     8    21 1   
    17     9    10 1   
    18    10    11 1   
    19    10    22 1   
    20    10    23 1   
    21    11    12 2   
    22    11    13 1   
    23    13    14 1   
    24    13    15 1   
@<TRIPOS>SUBSTRUCTURE
     1 3IO         1 TEMP              0 ****  ****    0 ROOT
