@<TRIPOS>MOLECULE
3IP
   27    28     1     0     0
SMALL
No Charge or Current Charge


@<TRIPOS>ATOM
      1 N1           2.1980    -0.1230     2.1650 nv         1 3IP      -1.098900
      2 C2           0.9080    -0.0890     2.5320 ca         1 3IP       0.626900
      3 N3           0.8190    -0.0780     3.8590 nb         1 3IP      -0.748000
      4 C4          -0.4280    -0.0360     4.3820 ca         1 3IP       0.359900
      5 C5          -1.5930    -0.0010     3.5900 ca         1 3IP      -0.199000
      6 C6          -1.4860    -0.0050     2.1870 ca         1 3IP      -0.124000
      7 C7          -0.1900    -0.0480     1.6280 ca         1 3IP       0.013100
      8 O8           0.0300    -0.0450     0.2560 os         1 3IP      -0.353100
      9 C9          -1.0510    -0.0060    -0.6930 c3         1 3IP       0.213900
     10 C10         -0.4630    -0.0130    -2.0970 ca         1 3IP      -0.098300
     11 C11         -0.2140    -1.2330    -2.7570 ca         1 3IP      -0.085000
     12 C12          0.3280    -1.2390    -4.0540 ca         1 3IP      -0.115500
     13 C13          0.6260    -0.0270    -4.6990 ca         1 3IP      -0.098000
     14 C14          0.3820     1.1930    -4.0450 ca         1 3IP      -0.115500
     15 C15         -0.1600     1.2000    -2.7480 ca         1 3IP      -0.085000
     16 H1N1         2.8460     0.1660     2.8870 hn         1 3IP       0.500500
     17 H1N2         2.4030     0.1860     1.2200 hn         1 3IP       0.500500
     18 H4          -0.4980    -0.0300     5.4690 h4         1 3IP       0.016100
     19 H5          -2.5680     0.0320     4.0700 ha         1 3IP       0.121000
     20 H6          -2.3840     0.0270     1.5750 ha         1 3IP       0.116000
     21 H9C1        -1.7080    -0.8770    -0.5670 h1         1 3IP       0.039700
     22 H9C2        -1.6550     0.9010    -0.5540 h1         1 3IP       0.039700
     23 H11         -0.4400    -2.1760    -2.2640 ha         1 3IP       0.115000
     24 H12          0.5180    -2.1840    -4.5590 ha         1 3IP       0.115000
     25 H13          1.0460    -0.0320    -5.7030 ha         1 3IP       0.114000
     26 H14          0.6130     2.1320    -4.5420 ha         1 3IP       0.115000
     27 H15         -0.3440     2.1480    -2.2470 ha         1 3IP       0.115000
@<TRIPOS>BOND
     1     1     2 1   
     2     1    16 1   
     3     1    17 1   
     4     2     3 ar  
     5     2     7 ar  
     6     3     4 ar  
     7     4     5 ar  
     8     4    18 1   
     9     5     6 ar  
    10     5    19 1   
    11     6     7 ar  
    12     6    20 1   
    13     7     8 1   
    14     8     9 1   
    15     9    10 1   
    16     9    21 1   
    17     9    22 1   
    18    10    11 ar  
    19    10    15 ar  
    20    11    12 ar  
    21    11    23 1   
    22    12    13 ar  
    23    12    24 1   
    24    13    14 ar  
    25    13    25 1   
    26    14    15 ar  
    27    14    26 1   
    28    15    27 1   
@<TRIPOS>SUBSTRUCTURE
     1 3IP         1 TEMP              0 ****  ****    0 ROOT
