@<TRIPOS>MOLECULE
3IP
   27    28     1     0     0
SMALL
abcg2


@<TRIPOS>ATOM
      1 N1           2.1320    -0.0130     1.9080 nv         1 3IP      -1.098900
      2 C2           0.8910    -0.0090     2.4440 ca         1 3IP       0.626900
      3 N3           0.7700    -0.0130     3.7610 nb         1 3IP      -0.748000
      4 C4          -0.4520    -0.0110     4.3020 ca         1 3IP       0.359900
      5 C5          -1.6090    -0.0050     3.5610 ca         1 3IP      -0.199000
      6 C6          -1.4970    -0.0000     2.1640 ca         1 3IP      -0.124000
      7 C7          -0.2480    -0.0030     1.5910 ca         1 3IP       0.013100
      8 O8           0.0270     0.0020     0.2680 os         1 3IP      -0.353100
      9 C9          -1.0610    -0.0070    -0.6450 c3         1 3IP       0.213900
     10 C10         -0.4790    -0.0110    -2.0260 ca         1 3IP      -0.098300
     11 C11         -0.1900    -1.2120    -2.6660 ca         1 3IP      -0.085000
     12 C12          0.3900    -1.2180    -3.9270 ca         1 3IP      -0.115500
     13 C13          0.6920    -0.0180    -4.5580 ca         1 3IP      -0.098000
     14 C14          0.4050     1.1860    -3.9260 ca         1 3IP      -0.115500
     15 C15         -0.1750     1.1880    -2.6650 ca         1 3IP      -0.085000
     16 H1N1         2.9330    -0.0060     2.5140 hn         1 3IP       0.500500
     17 H1N2         2.2820     0.0000     0.9170 hn         1 3IP       0.500500
     18 H4          -0.4910    -0.0150     5.3860 h4         1 3IP       0.016100
     19 H5          -2.5790    -0.0040     4.0380 ha         1 3IP       0.121000
     20 H6          -2.3920     0.0050     1.5550 ha         1 3IP       0.116000
     21 H9C1        -1.6850    -0.8930    -0.4840 h1         1 3IP       0.039700
     22 H9C2        -1.6930     0.8750    -0.4920 h1         1 3IP       0.039700
     23 H11         -0.4240    -2.1510    -2.1780 ha         1 3IP       0.115000
     24 H12          0.6070    -2.1590    -4.4160 ha         1 3IP       0.115000
     25 H13          1.1440    -0.0200    -5.5410 ha         1 3IP       0.114000
     26 H14          0.6330     2.1240    -4.4160 ha         1 3IP       0.115000
     27 H15         -0.3980     2.1290    -2.1780 ha         1 3IP       0.115000
@<TRIPOS>BOND
     1     1     2 1   
     2     1    16 1   
     3     1    17 1   
     4     2     3 ar  
     5     2     7 ar  
     6     3     4 ar  
     7     4     5 ar  
     8     4    18 1   
     9     5     6 ar  
    10     5    19 1   
    11     6     7 ar  
    12     6    20 1   
    13     7     8 1   
    14     8     9 1   
    15     9    10 1   
    16     9    21 1   
    17     9    22 1   
    18    10    11 ar  
    19    10    15 ar  
    20    11    12 ar  
    21    11    23 1   
    22    12    13 ar  
    23    12    24 1   
    24    13    14 ar  
    25    13    25 1   
    26    14    15 ar  
    27    14    26 1   
    28    15    27 1   
@<TRIPOS>SUBSTRUCTURE
     1 3IP         1 TEMP              0 ****  ****    0 ROOT
