@<TRIPOS>MOLECULE
3IQ
   32    34     1     0     0
SMALL
No Charge or Current Charge


@<TRIPOS>ATOM
      1 C10        154.8770   153.1880   133.4470 c6         1 3IQ       0.097600
      2 N          148.5770   156.2410   130.2580 nb         1 3IQ      -0.660000
      3 C          149.2880   155.1530   130.6120 ca         1 3IQ       0.373500
      4 C1         150.5050   155.2300   131.2520 ca         1 3IQ      -0.122800
      5 C11        152.3360   153.8590   133.6260 c6         1 3IQ       0.137800
      6 C12        155.7380   152.6260   131.1110 c3         1 3IQ      -0.089100
      7 C2         151.0890   156.4630   131.5700 ca         1 3IQ      -0.039000
      8 C3         150.3570   157.6080   131.2060 ca         1 3IQ      -0.170000
      9 C4         149.1130   157.4530   130.5580 ca         1 3IQ       0.374900
     10 C5         151.0000   153.9040   131.4860 cc         1 3IQ      -0.145200
     11 C6         150.0400   153.0550   130.9540 cd         1 3IQ      -0.120100
     12 C7         152.2490   153.5380   132.1330 ce         1 3IQ      -0.044200
     13 C8         153.2550   152.9170   131.4700 c2         1 3IQ      -0.218200
     14 C9         154.5700   152.4600   132.1150 c6         1 3IQ      -0.049500
     15 N1         148.9770   153.8250   130.4190 na         1 3IQ      -0.299400
     16 N2         153.5700   153.1880   134.2760 ny         1 3IQ      -0.815000
     17 H1         155.6630   152.6910   134.0280 hx         1 3IQ       0.102200
     18 H2         155.1530   154.2360   133.2820 hx         1 3IQ       0.102200
     19 H3         152.4490   154.9390   133.7750 hx         1 3IQ       0.102700
     20 H4         151.4440   153.5270   134.1690 hx         1 3IQ       0.102700
     21 H5         156.6840   152.2750   131.5420 hc         1 3IQ       0.061367
     22 H6         155.5620   152.0510   130.1950 hc         1 3IQ       0.061367
     23 H7         155.8710   153.6770   130.8260 hc         1 3IQ       0.061367
     24 H9         150.7390   158.6020   131.4180 ha         1 3IQ       0.137000
     25 H10        148.5300   158.3260   130.2670 h4         1 3IQ       0.037100
     26 H11        150.0360   151.9680   130.9230 h4         1 3IQ       0.211000
     27 H12        153.1360   152.6920   130.4080 ha         1 3IQ       0.225000
     28 H13        154.4870   151.3840   132.3260 hc         1 3IQ       0.080700
     29 H14        148.1380   153.4810   129.9690 hn         1 3IQ       0.379000
     30 H15        153.3210   152.2000   134.4900 hn         1 3IQ       0.503500
     31 H16        153.7420   153.6110   135.2130 hn         1 3IQ       0.503500
     32 H8         152.0540   156.5330   132.0650 ha         1 3IQ       0.117000
@<TRIPOS>BOND
     1     1    14 1   
     2     1    16 1   
     3     1    17 1   
     4     1    18 1   
     5     2     3 ar  
     6     2     9 ar  
     7     3     4 ar  
     8     3    15 1   
     9     4     7 ar  
    10     4    10 1   
    11     5    12 1   
    12     5    16 1   
    13     5    19 1   
    14     5    20 1   
    15     6    14 1   
    16     6    21 1   
    17     6    22 1   
    18     6    23 1   
    19     7     8 ar  
    20     7    32 1   
    21     8     9 ar  
    22     8    24 1   
    23     9    25 1   
    24    10    11 2   
    25    10    12 1   
    26    11    15 1   
    27    11    26 1   
    28    12    13 2   
    29    13    14 1   
    30    13    27 1   
    31    14    28 1   
    32    15    29 1   
    33    16    30 1   
    34    16    31 1   
@<TRIPOS>SUBSTRUCTURE
     1 3IQ         1 TEMP              0 ****  ****    0 ROOT
