@<TRIPOS>MOLECULE
3IQ
   32    34     1     0     0
SMALL
bcc


@<TRIPOS>ATOM
      1 C10        154.6550   152.8050   133.5560 c6         1 3IQ       0.125800
      2 N          148.6640   156.2440   130.2250 nb         1 3IQ      -0.660000
      3 C          149.2950   155.3140   130.9210 ca         1 3IQ       0.438800
      4 C1         150.6940   155.1530   131.0450 ca         1 3IQ      -0.188100
      5 C11        152.1850   152.8490   133.7120 c6         1 3IQ       0.166000
      6 C12        155.7460   154.0190   131.6760 c3         1 3IQ      -0.089100
      7 C2         151.4880   156.0890   130.3850 ca         1 3IQ      -0.057000
      8 C3         150.8480   157.0720   129.6520 ca         1 3IQ      -0.253300
      9 C4         149.4510   157.1050   129.5960 ca         1 3IQ       0.440200
     10 C5         150.9110   154.0230   131.9060 cc         1 3IQ      -0.145200
     11 C6         149.6590   153.5790   132.2590 cd         1 3IQ      -0.070100
     12 C7         152.1860   153.4640   132.3420 ce         1 3IQ      -0.044200
     13 C8         153.2990   153.5100   131.6030 c2         1 3IQ      -0.168200
     14 C9         154.6460   153.0320   132.0580 c6         1 3IQ      -0.049500
     15 N1         148.7010   154.3420   131.6670 na         1 3IQ      -0.249100
     16 N2         153.4240   152.0680   133.9550 ny         1 3IQ      -0.761000
     17 H1         155.5120   152.2150   133.8760 hx         1 3IQ       0.102200
     18 H2         154.6490   153.7450   134.1080 hx         1 3IQ       0.102200
     19 H3         152.1180   153.6100   134.4900 hx         1 3IQ       0.102700
     20 H4         151.3530   152.1590   133.8500 hx         1 3IQ       0.102700
     21 H5         156.7250   153.6520   131.9860 hc         1 3IQ       0.061367
     22 H6         155.7700   154.1630   130.5960 hc         1 3IQ       0.061367
     23 H7         155.5800   154.9910   132.1430 hc         1 3IQ       0.061367
     24 H9         151.4170   157.8220   129.1190 ha         1 3IQ       0.155000
     25 H10        148.9540   157.8740   129.0150 h4         1 3IQ       0.037100
     26 H11        149.3730   152.7520   132.8890 h4         1 3IQ       0.161000
     27 H12        153.2530   153.9060   130.5950 ha         1 3IQ       0.175000
     28 H13        154.8660   152.0790   131.5610 hc         1 3IQ       0.080700
     29 H14        147.7070   154.2100   131.7680 hn         1 3IQ       0.328700
     30 H15        153.3790   151.1790   133.4510 hn         1 3IQ       0.448300
     31 H16        153.4740   151.8160   134.9430 hn         1 3IQ       0.448300
     32 H8         152.5680   156.0620   130.4410 ha         1 3IQ       0.135000
@<TRIPOS>BOND
     1     1    14 1   
     2     1    16 1   
     3     1    17 1   
     4     1    18 1   
     5     2     3 ar  
     6     2     9 ar  
     7     3     4 ar  
     8     3    15 1   
     9     4     7 ar  
    10     4    10 1   
    11     5    12 1   
    12     5    16 1   
    13     5    19 1   
    14     5    20 1   
    15     6    14 1   
    16     6    21 1   
    17     6    22 1   
    18     6    23 1   
    19     7     8 ar  
    20     7    32 1   
    21     8     9 ar  
    22     8    24 1   
    23     9    25 1   
    24    10    11 2   
    25    10    12 1   
    26    11    15 1   
    27    11    26 1   
    28    12    13 2   
    29    13    14 1   
    30    13    27 1   
    31    14    28 1   
    32    15    29 1   
    33    16    30 1   
    34    16    31 1   
@<TRIPOS>SUBSTRUCTURE
     1 3IQ         1 TEMP              0 ****  ****    0 ROOT
