@<TRIPOS>MOLECULE
3IR
   29    31     1     0     0
SMALL
No Charge or Current Charge


@<TRIPOS>ATOM
      1 C1         125.8450    -7.9550    14.8200 c          1 3IR       0.650100
      2 C2        -123.6230    -6.9110    15.2970 cc         1 3IR       0.560300
      3 C3         121.5920    -6.0480    15.5720 cd         1 3IR       0.302900
      4 C4        -122.2900    -5.2260    16.4210 cc         1 3IR      -0.285000
      5 C5         126.6680    -6.8440    15.4300 cx         1 3IR      -0.243700
      6 C10       -126.1230    -1.8550    15.2200 ca         1 3IR      -0.109000
      7 C11        126.6770    -1.6440    16.4930 ca         1 3IR      -0.107000
      8 C12       -127.2970    -2.7070    17.1700 ca         1 3IR      -0.109000
      9 C13        127.3640    -3.9790    16.5750 ca         1 3IR      -0.101500
     10 C6        -128.0150    -6.5110    14.8130 cx         1 3IR      -0.077400
     11 C7         126.8530    -5.5600    14.6370 cx         1 3IR      -0.052400
     12 C8        -126.8120    -4.2010    15.2940 ca         1 3IR      -0.057300
     13 C9         126.1900    -3.1270    14.6250 ca         1 3IR      -0.101500
     14 N1        -124.4820    -7.8400    14.7710 ns         1 3IR      -0.482400
     15 N2         122.3570    -7.0190    14.9390 nd         1 3IR      -0.691000
     16 O1        -126.3750    -8.9470    14.3480 o          1 3IR      -0.566100
     17 S1         123.9730    -5.6560    16.4690 ss         1 3IR      -0.025400
     18 H2        -120.5280    -5.9920    15.3740 h4         1 3IR       0.043100
     19 H3         121.9200    -4.4050    17.0210 h4         1 3IR       0.163000
     20 H4        -126.6230    -6.7870    16.5130 hc         1 3IR       0.107700
     21 H9         125.6410    -1.0340    14.6950 ha         1 3IR       0.114500
     22 H10       -126.6250    -0.6600    16.9540 ha         1 3IR       0.115000
     23 H11        127.7250    -2.5460    18.1570 ha         1 3IR       0.114500
     24 H12       -127.8440    -4.7880    17.1190 ha         1 3IR       0.112500
     25 H5         128.8240    -6.2190    15.4790 hc         1 3IR       0.088700
     26 H6        -128.3390    -7.0710    13.9390 hc         1 3IR       0.088700
     27 H7         126.4130    -5.5430    13.6420 hc         1 3IR       0.093700
     28 H8        -125.7530    -3.2750    13.6400 ha         1 3IR       0.112500
     29 H1         124.0400    -8.5770    14.2450 hn         1 3IR       0.340500
@<TRIPOS>BOND
     1     1     5 1   
     2     1    14 1   
     3     1    16 2   
     4     2    14 1   
     5     2    15 2   
     6     2    17 1   
     7     3     4 2   
     8     3    15 1   
     9     3    18 1   
    10     4    17 1   
    11     4    19 1   
    12     5    10 1   
    13     5    11 1   
    14     5    20 1   
    15     6     7 ar  
    16     6    13 ar  
    17     6    21 1   
    18     7     8 ar  
    19     7    22 1   
    20     8     9 ar  
    21     8    23 1   
    22     9    12 ar  
    23     9    24 1   
    24    10    11 1   
    25    10    25 1   
    26    10    26 1   
    27    11    12 1   
    28    11    27 1   
    29    12    13 ar  
    30    13    28 1   
    31    14    29 1   
@<TRIPOS>SUBSTRUCTURE
     1 3IR         1 TEMP              0 ****  ****    0 ROOT
