@<TRIPOS>MOLECULE
3IR
   29    31     1     0     0
SMALL
abcg2


@<TRIPOS>ATOM
      1 C1        -125.7380    -7.6560    14.3560 c          1 3IR       0.650100
      2 C2        -123.5090    -7.0020    15.2730 cc         1 3IR       0.560300
      3 C3        -121.6380    -6.4960    16.2910 cd         1 3IR       0.302900
      4 C4        -122.1970    -5.2630    16.3240 cc         1 3IR      -0.285000
      5 C5        -126.4660    -6.7150    15.2420 cx         1 3IR      -0.243700
      6 C10       -126.5040    -1.7900    15.0940 ca         1 3IR      -0.109000
      7 C11       -126.7100    -1.6370    16.4580 ca         1 3IR      -0.107000
      8 C12       -127.0500    -2.7460    17.2240 ca         1 3IR      -0.109000
      9 C13       -127.1820    -3.9940    16.6330 ca         1 3IR      -0.101500
     10 C6        -127.9450    -6.5820    15.0960 cx         1 3IR      -0.077400
     11 C7        -127.0810    -5.4770    14.5950 cx         1 3IR      -0.052400
     12 C8        -126.9750    -4.1580    15.2640 ca         1 3IR      -0.057300
     13 C9        -126.6350    -3.0400    14.5050 ca         1 3IR      -0.101500
     14 N1        -124.3850    -7.7830    14.5500 ns         1 3IR      -0.482400
     15 N2        -122.3810    -7.4740    15.6970 nd         1 3IR      -0.691000
     16 O1        -126.2850    -8.3070    13.4870 o          1 3IR      -0.566100
     17 S1        -123.7330    -5.3040    15.5540 ss         1 3IR      -0.025400
     18 H2        -120.6720    -6.7430    16.7080 h4         1 3IR       0.043100
     19 H3        -121.8170    -4.3590    16.7710 h4         1 3IR       0.163000
     20 H4        -126.0680    -6.5780    16.2410 hc         1 3IR       0.107700
     21 H9        -126.2400    -0.9350    14.4850 ha         1 3IR       0.114500
     22 H10       -126.6070    -0.6650    16.9210 ha         1 3IR       0.115000
     23 H11       -127.2130    -2.6380    18.2890 ha         1 3IR       0.114500
     24 H12       -127.4480    -4.8400    17.2570 ha         1 3IR       0.112500
     25 H5        -128.5090    -6.4210    16.0060 hc         1 3IR       0.088700
     26 H6        -128.4420    -7.2020    14.3610 hc         1 3IR       0.088700
     27 H7        -126.9680    -5.4330    13.5160 hc         1 3IR       0.093700
     28 H8        -126.4680    -3.1510    13.4400 ha         1 3IR       0.112500
     29 H1        -123.9440    -8.5350    14.0340 hn         1 3IR       0.340500
@<TRIPOS>BOND
     1     1     5 1   
     2     1    14 1   
     3     1    16 2   
     4     2    14 1   
     5     2    15 2   
     6     2    17 1   
     7     3     4 2   
     8     3    15 1   
     9     3    18 1   
    10     4    17 1   
    11     4    19 1   
    12     5    10 1   
    13     5    11 1   
    14     5    20 1   
    15     6     7 ar  
    16     6    13 ar  
    17     6    21 1   
    18     7     8 ar  
    19     7    22 1   
    20     8     9 ar  
    21     8    23 1   
    22     9    12 ar  
    23     9    24 1   
    24    10    11 1   
    25    10    25 1   
    26    10    26 1   
    27    11    12 1   
    28    11    27 1   
    29    12    13 ar  
    30    13    28 1   
    31    14    29 1   
@<TRIPOS>SUBSTRUCTURE
     1 3IR         1 TEMP              0 ****  ****    0 ROOT
