@<TRIPOS>MOLECULE
3IS
   17    18     1     0     0
SMALL
bcc


@<TRIPOS>ATOM
      1 O            4.4380   -17.4310    19.3280 o          1 3IS      -0.594500
      2 C4           4.5360   -16.2490    19.0850 c          1 3IS       0.708500
      3 N            3.4980   -15.3790    18.9210 ns         1 3IS      -0.475100
      4 C5           5.8170   -15.4470    18.9000 c5         1 3IS      -0.120100
      5 C6           5.3220   -14.0640    18.6260 ca         1 3IS      -0.138300
      6 C7           5.9940   -12.8870    18.3800 ca         1 3IS      -0.067000
      7 C            5.2400   -11.7380    18.1570 ca         1 3IS      -0.004600
      8 CL           6.0610   -10.2390    17.8510 cl         1 3IS      -0.108400
      9 C3           3.9270   -14.0880    18.6510 ca         1 3IS       0.065600
     10 C2           3.1770   -12.9500    18.4270 ca         1 3IS      -0.157000
     11 C1           3.8550   -11.7600    18.1770 ca         1 3IS      -0.085000
     12 H1           2.5290   -15.6540    18.9910 hn         1 3IS       0.340500
     13 H2           6.4030   -15.8650    18.0780 hc         1 3IS       0.093700
     14 H3           6.4350   -15.5150    19.7990 hc         1 3IS       0.093700
     15 H4           7.0760   -12.8550    18.3600 ha         1 3IS       0.152000
     16 H5           2.0950   -12.9700    18.4440 ha         1 3IS       0.145000
     17 H6           3.2940   -10.8530    17.9980 ha         1 3IS       0.150000
@<TRIPOS>BOND
     1     1     2 2   
     2     2     3 1   
     3     2     4 1   
     4     3     9 1   
     5     3    12 1   
     6     4     5 1   
     7     4    13 1   
     8     4    14 1   
     9     5     6 ar  
    10     5     9 ar  
    11     6     7 ar  
    12     6    15 1   
    13     7     8 1   
    14     7    11 ar  
    15     9    10 ar  
    16    10    11 ar  
    17    10    16 1   
    18    11    17 1   
@<TRIPOS>SUBSTRUCTURE
     1 3IS         1 TEMP              0 ****  ****    0 ROOT
