@<TRIPOS>MOLECULE
3IS
   17    18     1     0     0
SMALL
No Charge or Current Charge


@<TRIPOS>ATOM
      1 O            4.3980   -17.5050    19.3390 o          1 3IS      -0.519000
      2 C4           4.5370   -16.3130    19.0950 c          1 3IS       0.566000
      3 N            3.5310   -15.3840    18.9190 ns         1 3IS      -0.149000
      4 C5           5.8370   -15.4660    18.9050 c5         1 3IS      -0.120100
      5 C6           5.3030   -14.0640    18.6280 ca         1 3IS      -0.138300
      6 C7           6.0000   -12.8720    18.3770 ca         1 3IS      -0.049000
      7 C            5.2500   -11.6970    18.1480 ca         1 3IS       0.087000
      8 Cl           6.0830   -10.1810    17.8290 cl         1 3IS      -0.200000
      9 C3           3.9260   -14.0800    18.6490 ca         1 3IS      -0.027000
     10 C2           3.1520   -12.9360    18.4270 ca         1 3IS      -0.139000
     11 C1           3.8340   -11.7270    18.1730 ca         1 3IS      -0.067000
     12 H1           2.5540   -15.6410    18.9840 hn         1 3IS       0.174000
     13 H2           6.4230   -15.8950    18.0860 hc         1 3IS       0.093700
     14 H3           6.4460   -15.5440    19.8120 hc         1 3IS       0.093700
     15 H4           7.0860   -12.8510    18.3580 ha         1 3IS       0.134000
     16 H5           2.0650   -12.9750    18.4500 ha         1 3IS       0.127000
     17 H6           3.2720   -10.8130    17.9950 ha         1 3IS       0.132000
@<TRIPOS>BOND
     1     1     2 2   
     2     2     3 1   
     3     2     4 1   
     4     3     9 1   
     5     3    12 1   
     6     4     5 1   
     7     4    13 1   
     8     4    14 1   
     9     5     6 ar  
    10     5     9 ar  
    11     6     7 ar  
    12     6    15 1   
    13     7     8 1   
    14     7    11 ar  
    15     9    10 ar  
    16    10    11 ar  
    17    10    16 1   
    18    11    17 1   
@<TRIPOS>SUBSTRUCTURE
     1 3IS         1 TEMP              0 ****  ****    0 ROOT
