@<TRIPOS>MOLECULE
3IT
   22    22     1     0     0
SMALL
No Charge or Current Charge


@<TRIPOS>ATOM
      1 CAB          2.8190     0.0240     1.3400 c2         1 3IT      -0.307000
      2 CAI          2.1680    -0.1120     0.1660 ce         1 3IT      -0.068200
      3 CAA          2.9110    -0.1800    -1.1570 c3         1 3IT      -0.049900
      4 CAK          0.7200    -0.3180     0.0980 cc         1 3IT      -0.094000
      5 CAG          0.2830    -1.6260     0.5130 cc         1 3IT      -0.081000
      6 CAE         -0.9690    -2.2030     0.6070 cd         1 3IT      -0.233000
      7 CAF         -2.2480    -1.6360     0.3070 cd         1 3IT      -0.072000
      8 CAH         -2.4960    -0.3600    -0.1370 cc         1 3IT      -0.301200
      9 CAL         -1.6040     0.7630    -0.4280 c          1 3IT       0.530500
     10 OAC         -2.1210     1.8130    -0.8080 o          1 3IT      -0.593100
     11 CAJ         -0.1110     0.7190    -0.2960 cd         1 3IT       0.078900
     12 OAD          0.4270     1.9270    -0.6370 oh         1 3IT      -0.516100
     13 H1           2.2840     0.0320     2.2900 ha         1 3IT       0.167000
     14 H2           3.9020     0.1370     1.3870 ha         1 3IT       0.167000
     15 H5           3.8880    -0.6640    -1.0450 hc         1 3IT       0.044033
     16 H6           2.3480    -0.7490    -1.9070 hc         1 3IT       0.044033
     17 H7           3.0820     0.8240    -1.5630 hc         1 3IT       0.044033
     18 H8           1.1040    -2.2810     0.8010 ha         1 3IT       0.182000
     19 H9          -0.9860    -3.2350     0.9540 ha         1 3IT       0.183000
     20 H10         -3.1130    -2.2820     0.4500 ha         1 3IT       0.177000
     21 H11         -3.5320    -0.0910    -0.3120 ha         1 3IT       0.198000
     22 H12         -0.3520     2.4870    -0.8750 ho         1 3IT       0.500000
@<TRIPOS>BOND
     1     1     2 2   
     2     1    13 1   
     3     1    14 1   
     4     2     3 1   
     5     2     4 1   
     6     3    15 1   
     7     3    16 1   
     8     3    17 1   
     9     4     5 1   
    10     4    11 2   
    11     5     6 2   
    12     5    18 1   
    13     6     7 1   
    14     6    19 1   
    15     7     8 2   
    16     7    20 1   
    17     8     9 1   
    18     8    21 1   
    19     9    10 2   
    20     9    11 1   
    21    11    12 1   
    22    12    22 1   
@<TRIPOS>SUBSTRUCTURE
     1 3IT         1 TEMP              0 ****  ****    0 ROOT
