@<TRIPOS>MOLECULE
3IT
   22    22     1     0     0
SMALL
bcc


@<TRIPOS>ATOM
      1 CAB          2.7950     0.0030     1.3280 c2         1 3IT      -0.207000
      2 CAI          2.1650    -0.1510     0.1680 ce         1 3IT      -0.068200
      3 CAA          2.8670    -0.1750    -1.1570 c3         1 3IT      -0.049900
      4 CAK          0.6880    -0.3770     0.1370 cc         1 3IT      -0.094000
      5 CAG          0.2550    -1.6740     0.4950 cc         1 3IT      -0.031000
      6 CAE         -1.0030    -2.2040     0.5650 cd         1 3IT      -0.183000
      7 CAF         -2.2220    -1.5640     0.2750 cd         1 3IT      -0.022000
      8 CAH         -2.4620    -0.2870    -0.1420 cc         1 3IT      -0.251200
      9 CAL         -1.5570     0.7850    -0.4080 c          1 3IT       0.530500
     10 OAC         -1.9630     1.8950    -0.7900 o          1 3IT      -0.593100
     11 CAJ         -0.0960     0.6840    -0.2480 cd         1 3IT       0.078900
     12 OAD          0.5050     1.8290    -0.5310 oh         1 3IT      -0.477100
     13 H1           2.2640     0.0010     2.2720 ha         1 3IT       0.117000
     14 H2           3.8690     0.1380     1.3690 ha         1 3IT       0.117000
     15 H5           3.9350     0.0060    -1.0410 hc         1 3IT       0.044033
     16 H6           2.7360    -1.1450    -1.6420 hc         1 3IT       0.044033
     17 H7           2.4620     0.5750    -1.8370 hc         1 3IT       0.044033
     18 H8           1.0590    -2.3510     0.7560 ha         1 3IT       0.132000
     19 H9          -1.0720    -3.2390     0.8750 ha         1 3IT       0.133000
     20 H10         -3.1050    -2.1780     0.4020 ha         1 3IT       0.127000
     21 H11         -3.5000    -0.0210    -0.3050 ha         1 3IT       0.148000
     22 H12         -0.2170     2.4400    -0.7940 ho         1 3IT       0.461000
@<TRIPOS>BOND
     1     1     2 2   
     2     1    13 1   
     3     1    14 1   
     4     2     3 1   
     5     2     4 1   
     6     3    15 1   
     7     3    16 1   
     8     3    17 1   
     9     4     5 1   
    10     4    11 2   
    11     5     6 2   
    12     5    18 1   
    13     6     7 1   
    14     6    19 1   
    15     7     8 2   
    16     7    20 1   
    17     8     9 1   
    18     8    21 1   
    19     9    10 2   
    20     9    11 1   
    21    11    12 1   
    22    12    22 1   
@<TRIPOS>SUBSTRUCTURE
     1 3IT         1 TEMP              0 ****  ****    0 ROOT
