@<TRIPOS>MOLECULE
3IU
   63    67     1     0     0
SMALL
No Charge or Current Charge


@<TRIPOS>ATOM
      1 C4          -7.9010   -17.3230    21.2470 ca         1 3IU      -0.100000
      2 C14         -6.7270   -12.5160    31.4110 c3         1 3IU      -0.062400
      3 C5          -6.8820   -17.4580    22.2150 ca         1 3IU      -0.065000
      4 C6          -5.7460   -16.6260    22.1090 ca         1 3IU       0.083100
      5 C7          -6.8310   -17.7220    24.7290 c          1 3IU       0.558000
      6 C8          -6.3670   -16.2480    24.8790 c3         1 3IU      -0.007300
      7 C9          -4.9430   -16.0060    24.3170 c3         1 3IU       0.154600
      8 C12         -6.5520   -14.3370    28.2280 cc         1 3IU       0.315000
      9 C13         -6.6870   -13.4920    30.2660 cc         1 3IU       0.395800
     10 N1          -7.1350   -18.2020    23.4270 n          1 3IU      -0.222400
     11 N2          -6.4740   -15.8100    26.2960 ns         1 3IU      -0.468900
     12 C3          -7.7280   -16.4800    20.1330 ca         1 3IU       0.050000
     13 N3          -6.7010   -15.3330    29.0990 nd         1 3IU      -0.342000
     14 C1          -5.5600   -15.7950    20.9930 ca         1 3IU      -0.105000
     15 C15         -6.7020   -11.0540    30.9760 ca         1 3IU      -0.101300
     16 C16         -7.9040   -10.3810    30.6800 ca         1 3IU      -0.101500
     17 C17         -7.8810    -9.0380    30.2660 ca         1 3IU      -0.107500
     18 C18         -6.6560    -8.3610    30.1430 ca         1 3IU      -0.102000
     19 C19         -5.4540    -9.0270    30.4350 ca         1 3IU      -0.107500
     20 C2          -6.5500   -15.7260    20.0000 ca         1 3IU      -0.089000
     21 C20         -5.4770   -10.3700    30.8490 ca         1 3IU      -0.101500
     22 C21         -8.7610   -16.3800    19.1440 cg         1 3IU      -0.133000
     23 C22         -9.6430   -16.2960    18.3130 c1         1 3IU      -0.098100
     24 C23        -10.7330   -16.1920    17.3220 c6         1 3IU       0.021400
     25 C24        -11.8360   -17.2530    17.5820 c6         1 3IU      -0.108400
     26 C25        -13.0100   -17.0690    16.5910 c6         1 3IU       0.153600
     27 C26        -12.5470   -14.7060    16.3280 c6         1 3IU       0.153600
     28 C27        -11.3490   -14.7670    17.3050 c6         1 3IU      -0.108400
     29 N4          -6.7840   -14.8040    30.3650 nd         1 3IU      -0.358000
     30 N5          -6.5400   -13.1640    28.9490 na         1 3IU      -0.455000
     31 O1          -4.7690   -16.6920    23.0670 os         1 3IU      -0.344100
     32 O2          -6.9850   -18.4320    25.7190 o          1 3IU      -0.531000
     33 O3          -6.2880   -13.5650    25.9490 o          1 3IU      -0.604100
     34 O4         -13.5170   -15.7190    16.6750 os         1 3IU      -0.446000
     35 H1          -8.8330   -17.8740    21.3550 ha         1 3IU       0.131000
     36 H2          -7.6260   -12.7110    32.0070 hc         1 3IU       0.078200
     37 H3          -5.8820   -12.7230    32.0770 hc         1 3IU       0.078200
     38 H4          -7.0710   -15.6470    24.2890 h1         1 3IU       0.107700
     39 H5          -4.1980   -16.3640    25.0400 h1         1 3IU       0.066700
     40 H6          -4.7870   -14.9280    24.1840 h1         1 3IU       0.066700
     41 H7          -7.2530   -20.2660    23.9190 h1         1 3IU       0.049700
     42 H8          -8.8280   -19.4580    23.6500 h1         1 3IU       0.049700
     43 H9          -7.7730   -19.8670    22.2650 h1         1 3IU       0.049700
     44 H10         -6.6040   -16.5210    27.0130 hn         1 3IU       0.359500
     45 H12         -4.6560   -15.1980    20.9060 ha         1 3IU       0.132000
     46 H13         -8.8570   -10.8990    30.7690 ha         1 3IU       0.116500
     47 H14         -8.8120    -8.5230    30.0390 ha         1 3IU       0.116000
     48 H15         -6.6380    -7.3210    29.8220 ha         1 3IU       0.116000
     49 H16         -4.5050    -8.5040    30.3390 ha         1 3IU       0.116000
     50 H17         -6.4100   -15.0740    19.1400 ha         1 3IU       0.127000
     51 H18         -4.5410   -10.8790    31.0700 ha         1 3IU       0.116500
     52 H19        -10.2770   -16.3910    16.3410 hc         1 3IU       0.064700
     53 H20        -12.2150   -17.1660    18.6100 hc         1 3IU       0.057950
     54 H21        -11.4240   -18.2660    17.4820 hc         1 3IU       0.057950
     55 H22        -12.6780   -17.2700    15.5610 h1         1 3IU       0.045950
     56 H23        -13.8200   -17.7710    16.8320 h1         1 3IU       0.045950
     57 H24        -12.2070   -14.8660    15.2940 h1         1 3IU       0.045950
     58 H25        -13.0260   -13.7180    16.3820 h1         1 3IU       0.045950
     59 H26        -11.6900   -14.4870    18.3120 hc         1 3IU       0.057950
     60 H27        -10.5930   -14.0270    17.0110 hc         1 3IU       0.057950
     61 H28         -6.4430   -12.2310    28.5740 hn         1 3IU       0.384000
     62 C11         -6.4240   -14.4980    26.7360 c          1 3IU       0.548600
     63 C10         -7.7870   -19.5270    23.3080 c3         1 3IU       0.093300
@<TRIPOS>BOND
     1     1     3 ar  
     2     1    12 ar  
     3     1    35 1   
     4     2     9 1   
     5     2    15 1   
     6     2    36 1   
     7     2    37 1   
     8     3     4 ar  
     9     3    10 1   
    10     4    14 ar  
    11     4    31 1   
    12     5     6 1   
    13     5    10 1   
    14     5    32 2   
    15     6     7 1   
    16     6    11 1   
    17     6    38 1   
    18     7    31 1   
    19     7    39 1   
    20     7    40 1   
    21     8    13 2   
    22     8    30 1   
    23     8    62 1   
    24     9    29 2   
    25     9    30 1   
    26    10    63 1   
    27    11    44 1   
    28    11    62 1   
    29    12    20 ar  
    30    12    22 1   
    31    13    29 1   
    32    14    20 ar  
    33    14    45 1   
    34    15    16 ar  
    35    15    21 ar  
    36    16    17 ar  
    37    16    46 1   
    38    17    18 ar  
    39    17    47 1   
    40    18    19 ar  
    41    18    48 1   
    42    19    21 ar  
    43    19    49 1   
    44    20    50 1   
    45    21    51 1   
    46    22    23 3   
    47    23    24 1   
    48    24    25 1   
    49    24    28 1   
    50    24    52 1   
    51    25    26 1   
    52    25    53 1   
    53    25    54 1   
    54    26    34 1   
    55    26    55 1   
    56    26    56 1   
    57    27    28 1   
    58    27    34 1   
    59    27    57 1   
    60    27    58 1   
    61    28    59 1   
    62    28    60 1   
    63    30    61 1   
    64    33    62 2   
    65    41    63 1   
    66    42    63 1   
    67    43    63 1   
@<TRIPOS>SUBSTRUCTURE
     1 3IU         1 TEMP              0 ****  ****    0 ROOT
