@<TRIPOS>MOLECULE
3IU
   63    67     1     0     0
SMALL
abcg2


@<TRIPOS>ATOM
      1 C4          -7.9000   -17.1470    21.4180 ca         1 3IU      -0.100000
      2 C14         -7.4090   -12.4710    31.0090 c3         1 3IU      -0.062400
      3 C5          -6.9000   -17.2990    22.3660 ca         1 3IU      -0.065000
      4 C6          -5.6540   -16.7030    22.1520 ca         1 3IU       0.083100
      5 C7          -6.7920   -17.6250    24.7620 c          1 3IU       0.558000
      6 C8          -6.2150   -16.2100    24.8330 c3         1 3IU      -0.007300
      7 C9          -4.7920   -16.1540    24.2600 c3         1 3IU       0.154600
      8 C12         -6.7540   -14.3950    28.0510 cc         1 3IU       0.315000
      9 C13         -6.9890   -13.4330    29.9550 cc         1 3IU       0.395800
     10 N1          -7.1120   -18.0760    23.5230 n          1 3IU      -0.222400
     11 N2          -6.1940   -15.7380    26.1860 ns         1 3IU      -0.468900
     12 C3          -7.6730   -16.4070    20.2570 ca         1 3IU       0.050000
     13 N3          -6.0530   -15.0670    28.9200 nd         1 3IU      -0.342000
     14 C1          -5.4270   -15.9550    21.0080 ca         1 3IU      -0.105000
     15 C15         -6.9560   -11.0650    30.6960 ca         1 3IU      -0.101300
     16 C16         -7.8590   -10.1040    30.2540 ca         1 3IU      -0.101500
     17 C17         -7.4290    -8.8190    29.9460 ca         1 3IU      -0.107500
     18 C18         -6.0900    -8.4830    30.0770 ca         1 3IU      -0.102000
     19 C19         -5.1810    -9.4380    30.5180 ca         1 3IU      -0.107500
     20 C2          -6.4240   -15.8130    20.0590 ca         1 3IU      -0.089000
     21 C20         -5.6120   -10.7210    30.8230 ca         1 3IU      -0.101500
     22 C21         -8.7170   -16.2470    19.2990 cg         1 3IU      -0.133000
     23 C22         -9.6040   -16.1030    18.4950 c1         1 3IU      -0.098100
     24 C23        -10.7040   -15.9380    17.5550 c6         1 3IU       0.021400
     25 C24        -11.4690   -17.2500    17.3390 c6         1 3IU      -0.108400
     26 C25        -12.6530   -17.0110    16.4150 c6         1 3IU       0.153600
     27 C26        -12.8550   -14.7710    17.0490 c6         1 3IU       0.153600
     28 C27        -11.6880   -14.8550    18.0180 c6         1 3IU      -0.108400
     29 N4          -6.1980   -14.4660    30.1170 nd         1 3IU      -0.358000
     30 N5          -7.3610   -13.3560    28.6620 na         1 3IU      -0.455000
     31 O1          -4.6630   -16.8960    23.0610 os         1 3IU      -0.344100
     32 O2          -6.9690   -18.2920    25.7630 o          1 3IU      -0.531000
     33 O3          -7.6070   -13.9710    25.9080 o          1 3IU      -0.604100
     34 O4         -13.5150   -16.0080    16.9040 os         1 3IU      -0.446000
     35 H1          -8.8690   -17.6020    21.5810 ha         1 3IU       0.131000
     36 H2          -8.4960   -12.5000    31.1160 hc         1 3IU       0.078200
     37 H3          -6.9830   -12.8110    31.9530 hc         1 3IU       0.078200
     38 H4          -6.8630   -15.5380    24.2660 h1         1 3IU       0.107700
     39 H5          -4.0910   -16.6000    24.9670 h1         1 3IU       0.066700
     40 H6          -4.5130   -15.1070    24.1080 h1         1 3IU       0.066700
     41 H7          -7.1940   -20.1180    23.9970 h1         1 3IU       0.049700
     42 H8          -8.7750   -19.3730    23.7190 h1         1 3IU       0.049700
     43 H9          -7.6910   -19.7010    22.3590 h1         1 3IU       0.049700
     44 H10         -5.6720   -16.2660    26.8720 hn         1 3IU       0.359500
     45 H12         -4.4570   -15.5000    20.8550 ha         1 3IU       0.132000
     46 H13         -8.9070   -10.3610    30.1510 ha         1 3IU       0.116500
     47 H14         -8.1440    -8.0810    29.6040 ha         1 3IU       0.116000
     48 H15         -5.7540    -7.4820    29.8390 ha         1 3IU       0.116000
     49 H16         -4.1350    -9.1830    30.6260 ha         1 3IU       0.116000
     50 H17         -6.2390   -15.2350    19.1640 ha         1 3IU       0.127000
     51 H18         -4.8990   -11.4630    31.1650 ha         1 3IU       0.116500
     52 H19        -10.2830   -15.6250    16.5910 hc         1 3IU       0.064700
     53 H20        -11.8170   -17.6320    18.3030 hc         1 3IU       0.057950
     54 H21        -10.8160   -18.0080    16.9030 hc         1 3IU       0.057950
     55 H22        -12.2830   -16.7430    15.4140 h1         1 3IU       0.045950
     56 H23        -13.2450   -17.9220    16.3130 h1         1 3IU       0.045950
     57 H24        -12.4930   -14.4140    16.0730 h1         1 3IU       0.045950
     58 H25        -13.5960   -14.0520    17.4050 h1         1 3IU       0.045950
     59 H26        -12.0510   -15.0960    19.0210 hc         1 3IU       0.057950
     60 H27        -11.1910   -13.8840    18.0740 hc         1 3IU       0.057950
     61 H28         -7.9650   -12.6680    28.2330 hn         1 3IU       0.384000
     62 C11         -6.9000   -14.6770    26.6060 c          1 3IU       0.548600
     63 C10         -7.7330   -19.3870    23.3980 c3         1 3IU       0.093300
@<TRIPOS>BOND
     1     1     3 ar  
     2     1    12 ar  
     3     1    35 1   
     4     2     9 1   
     5     2    15 1   
     6     2    36 1   
     7     2    37 1   
     8     3     4 ar  
     9     3    10 1   
    10     4    14 ar  
    11     4    31 1   
    12     5     6 1   
    13     5    10 1   
    14     5    32 2   
    15     6     7 1   
    16     6    11 1   
    17     6    38 1   
    18     7    31 1   
    19     7    39 1   
    20     7    40 1   
    21     8    13 2   
    22     8    30 1   
    23     8    62 1   
    24     9    29 2   
    25     9    30 1   
    26    10    63 1   
    27    11    44 1   
    28    11    62 1   
    29    12    20 ar  
    30    12    22 1   
    31    13    29 1   
    32    14    20 ar  
    33    14    45 1   
    34    15    16 ar  
    35    15    21 ar  
    36    16    17 ar  
    37    16    46 1   
    38    17    18 ar  
    39    17    47 1   
    40    18    19 ar  
    41    18    48 1   
    42    19    21 ar  
    43    19    49 1   
    44    20    50 1   
    45    21    51 1   
    46    22    23 3   
    47    23    24 1   
    48    24    25 1   
    49    24    28 1   
    50    24    52 1   
    51    25    26 1   
    52    25    53 1   
    53    25    54 1   
    54    26    34 1   
    55    26    55 1   
    56    26    56 1   
    57    27    28 1   
    58    27    34 1   
    59    27    57 1   
    60    27    58 1   
    61    28    59 1   
    62    28    60 1   
    63    30    61 1   
    64    33    62 2   
    65    41    63 1   
    66    42    63 1   
    67    43    63 1   
@<TRIPOS>SUBSTRUCTURE
     1 3IU         1 TEMP              0 ****  ****    0 ROOT
