@<TRIPOS>MOLECULE
3IV
   47    46     1     0     0
SMALL
abcg2


@<TRIPOS>ATOM
      1 C10         -1.5050   -18.8890    -2.3350 c3         1 3IV      -0.075400
      2 C11         -0.7650   -18.5370    -3.6300 c3         1 3IV      -0.076400
      3 C13         -0.8610   -17.4030    -5.9340 c3         1 3IV      -0.078400
      4 C14         -0.4630   -18.6090    -6.7860 c3         1 3IV      -0.060400
      5 C12         -1.6030   -17.7540    -4.6420 c3         1 3IV      -0.069400
      6 C16          0.6690   -19.3930    -8.9710 c          1 3IV       0.707000
      7 C15          0.1980   -18.2110    -8.1040 c3         1 3IV      -0.198400
      8 C01         -3.9060   -15.6000     6.1580 c3         1 3IV      -0.089100
      9 C02         -3.0540   -16.7200     5.5660 c3         1 3IV      -0.076400
     10 C03         -3.8930   -17.9010     5.0810 c3         1 3IV      -0.070400
     11 C04         -3.0750   -19.0800     4.5280 c3         1 3IV      -0.037200
     12 C05         -2.2650   -18.7380     3.3120 c2         1 3IV      -0.232200
     13 C06         -2.5140   -19.1820     2.0830 c2         1 3IV      -0.208200
     14 C07         -1.7420   -18.8140     0.8530 c3         1 3IV      -0.045200
     15 C08         -2.5910   -18.0410    -0.1660 c3         1 3IV      -0.069400
     16 C09         -1.8530   -17.6830    -1.4590 c3         1 3IV      -0.075400
     17 O17          0.4580   -19.3160   -10.2110 o          1 3IV      -0.745500
     18 O18          1.2560   -20.3420    -8.3870 o          1 3IV      -0.745500
     19 H1          -2.4270   -19.4280    -2.5820 hc         1 3IV       0.032200
     20 H2          -0.8870   -19.5850    -1.7620 hc         1 3IV       0.032200
     21 H3          -0.4160   -19.4640    -4.0910 hc         1 3IV       0.046200
     22 H4           0.1340   -17.9590    -3.3850 hc         1 3IV       0.046200
     23 H5           0.0380   -16.8250    -5.6890 hc         1 3IV       0.025700
     24 H6          -1.4940   -16.7410    -6.5350 hc         1 3IV       0.025700
     25 H7          -1.3570   -19.2090    -6.9940 hc         1 3IV       0.038700
     26 H8           0.2200   -19.2560    -6.2340 hc         1 3IV       0.038700
     27 H9          -1.9570   -16.8280    -4.1820 hc         1 3IV       0.022700
     28 H10         -2.5000   -18.3360    -4.8880 hc         1 3IV       0.022700
     29 H11          1.0820   -17.5980    -7.8880 hc         1 3IV       0.016200
     30 H12         -0.4790   -17.5890    -8.6940 hc         1 3IV       0.016200
     31 H13         -3.2890   -14.7660     6.5010 hc         1 3IV       0.029700
     32 H14         -4.6100   -15.2110     5.4170 hc         1 3IV       0.029700
     33 H15         -4.4880   -15.9590     7.0110 hc         1 3IV       0.029700
     34 H16         -2.3380   -17.0740     6.3170 hc         1 3IV       0.038700
     35 H17         -2.4600   -16.3240     4.7380 hc         1 3IV       0.038700
     36 H18         -4.5860   -17.5580     4.3040 hc         1 3IV       0.036700
     37 H19         -4.5080   -18.2640     5.9110 hc         1 3IV       0.036700
     38 H20         -3.7550   -19.9020     4.2870 hc         1 3IV       0.039700
     39 H21         -2.4080   -19.4400     5.3220 hc         1 3IV       0.039700
     40 H22         -1.4260   -18.0610     3.4580 ha         1 3IV       0.165000
     41 H23         -3.3570   -19.8560     1.9310 ha         1 3IV       0.162000
     42 H24         -1.3610   -19.7270     0.3830 hc         1 3IV       0.046200
     43 H25         -0.8700   -18.2120     1.1290 hc         1 3IV       0.046200
     44 H26         -2.9480   -17.1230     0.3110 hc         1 3IV       0.034700
     45 H27         -3.4830   -18.6280    -0.4110 hc         1 3IV       0.034700
     46 H28         -0.9310   -17.1420    -1.2120 hc         1 3IV       0.038200
     47 H29         -2.4740   -16.9880    -2.0290 hc         1 3IV       0.038200
@<TRIPOS>BOND
     1     1     2 1   
     2     1    16 1   
     3     1    19 1   
     4     1    20 1   
     5     2     5 1   
     6     2    21 1   
     7     2    22 1   
     8     3     4 1   
     9     3     5 1   
    10     3    23 1   
    11     3    24 1   
    12     4     7 1   
    13     4    25 1   
    14     4    26 1   
    15     5    27 1   
    16     5    28 1   
    17     6     7 1   
    18     6    17 1   
    19     6    18 1   
    20     7    29 1   
    21     7    30 1   
    22     8     9 1   
    23     8    31 1   
    24     8    32 1   
    25     8    33 1   
    26     9    10 1   
    27     9    34 1   
    28     9    35 1   
    29    10    11 1   
    30    10    36 1   
    31    10    37 1   
    32    11    12 1   
    33    11    38 1   
    34    11    39 1   
    35    12    13 2   
    36    12    40 1   
    37    13    14 1   
    38    13    41 1   
    39    14    15 1   
    40    14    42 1   
    41    14    43 1   
    42    15    16 1   
    43    15    44 1   
    44    15    45 1   
    45    16    46 1   
    46    16    47 1   
@<TRIPOS>SUBSTRUCTURE
     1 3IV         1 TEMP              0 ****  ****    0 ROOT
