@<TRIPOS>MOLECULE
3IV
   47    46     1     0     0
SMALL
No Charge or Current Charge


@<TRIPOS>ATOM
      1 C10         -1.5180   -18.9590    -2.3510 c3         1 3IV      -0.075400
      2 C11         -0.7450   -18.5500    -3.6280 c3         1 3IV      -0.076400
      3 C13         -0.8050   -17.3400    -5.9350 c3         1 3IV      -0.078400
      4 C14         -0.3880   -18.5250    -6.8390 c3         1 3IV      -0.060400
      5 C12         -1.5790   -17.7440    -4.6560 c3         1 3IV      -0.069400
      6 C16          0.6860   -19.3000    -9.0000 c          1 3IV       0.707000
      7 C15          0.2970   -18.0740    -8.1530 c3         1 3IV      -0.198400
      8 C01         -3.8550   -15.4680     6.0700 c3         1 3IV      -0.089100
      9 C02         -3.0170   -16.6430     5.5320 c3         1 3IV      -0.076400
     10 C03         -3.8770   -17.8600     5.1200 c3         1 3IV      -0.070400
     11 C04         -3.0590   -19.0750     4.6290 c3         1 3IV      -0.037200
     12 C05         -2.2980   -18.8020     3.3470 c2         1 3IV      -0.232200
     13 C06         -2.6270   -19.2760     2.1360 c2         1 3IV      -0.208200
     14 C07         -1.8590   -19.0130     0.8570 c3         1 3IV      -0.045200
     15 C08         -2.6870   -18.1880    -0.1550 c3         1 3IV      -0.069400
     16 C09         -1.9200   -17.7760    -1.4340 c3         1 3IV      -0.075400
     17 O17         -0.1350   -19.7410    -9.7890 o          1 3IV      -0.745500
     18 O18          1.7820   -19.8070    -8.8130 o          1 3IV      -0.745500
     19 H1          -2.4160   -19.5200    -2.6370 hc         1 3IV       0.032200
     20 H2          -0.8840   -19.6510    -1.7850 hc         1 3IV       0.032200
     21 H3          -0.3790   -19.4680    -4.1040 hc         1 3IV       0.046200
     22 H4           0.1420   -17.9700    -3.3430 hc         1 3IV       0.046200
     23 H5           0.0870   -16.7680    -5.6500 hc         1 3IV       0.025700
     24 H6          -1.4390   -16.6600    -6.5170 hc         1 3IV       0.025700
     25 H7          -1.2770   -19.1220    -7.0830 hc         1 3IV       0.038700
     26 H8           0.2980   -19.1830    -6.2920 hc         1 3IV       0.038700
     27 H9          -1.9420   -16.8250    -4.1840 hc         1 3IV       0.022700
     28 H10         -2.4660   -18.3240    -4.9400 hc         1 3IV       0.022700
     29 H11          1.1930   -17.5190    -7.8480 hc         1 3IV       0.016200
     30 H12         -0.4430   -17.4620    -8.6830 hc         1 3IV       0.016200
     31 H13         -3.2040   -14.6300     6.3480 hc         1 3IV       0.029700
     32 H14         -4.5620   -15.1160     5.3100 hc         1 3IV       0.029700
     33 H15         -4.4220   -15.7700     6.9590 hc         1 3IV       0.029700
     34 H16         -2.2970   -16.9500     6.3020 hc         1 3IV       0.038700
     35 H17         -2.4350   -16.2940     4.6710 hc         1 3IV       0.038700
     36 H18         -4.5800   -17.5600     4.3330 hc         1 3IV       0.036700
     37 H19         -4.4830   -18.1740     5.9800 hc         1 3IV       0.036700
     38 H20         -3.7510   -19.9140     4.4800 hc         1 3IV       0.039700
     39 H21         -2.3650   -19.3910     5.4180 hc         1 3IV       0.039700
     40 H22         -1.4120   -18.1760     3.4730 ha         1 3IV       0.165000
     41 H23         -3.5080   -19.9080     2.0100 ha         1 3IV       0.162000
     42 H24         -1.5700   -19.9690     0.4060 hc         1 3IV       0.046200
     43 H25         -0.9280   -18.4760     1.0760 hc         1 3IV       0.046200
     44 H26         -3.0370   -17.2760     0.3450 hc         1 3IV       0.034700
     45 H27         -3.5840   -18.7530    -0.4360 hc         1 3IV       0.034700
     46 H28         -1.0220   -17.2130    -1.1510 hc         1 3IV       0.038200
     47 H29         -2.5580   -17.0840    -1.9960 hc         1 3IV       0.038200
@<TRIPOS>BOND
     1     1     2 1   
     2     1    16 1   
     3     1    19 1   
     4     1    20 1   
     5     2     5 1   
     6     2    21 1   
     7     2    22 1   
     8     3     4 1   
     9     3     5 1   
    10     3    23 1   
    11     3    24 1   
    12     4     7 1   
    13     4    25 1   
    14     4    26 1   
    15     5    27 1   
    16     5    28 1   
    17     6     7 1   
    18     6    17 1   
    19     6    18 1   
    20     7    29 1   
    21     7    30 1   
    22     8     9 1   
    23     8    31 1   
    24     8    32 1   
    25     8    33 1   
    26     9    10 1   
    27     9    34 1   
    28     9    35 1   
    29    10    11 1   
    30    10    36 1   
    31    10    37 1   
    32    11    12 1   
    33    11    38 1   
    34    11    39 1   
    35    12    13 2   
    36    12    40 1   
    37    13    14 1   
    38    13    41 1   
    39    14    15 1   
    40    14    42 1   
    41    14    43 1   
    42    15    16 1   
    43    15    44 1   
    44    15    45 1   
    45    16    46 1   
    46    16    47 1   
@<TRIPOS>SUBSTRUCTURE
     1 3IV         1 TEMP              0 ****  ****    0 ROOT
