@<TRIPOS>MOLECULE
3J0
   57    61     1     0     0
SMALL
No Charge or Current Charge


@<TRIPOS>ATOM
      1 C10          5.0080     8.8160     0.6310 ca         1 3J0      -0.120000
      2 C13          4.2500     9.7140     3.1680 ca         1 3J0      -0.073500
      3 C15          2.7580    11.5370     2.2040 cs         1 3J0       0.420000
      4 C20         -0.9220    12.2780     1.5410 ca         1 3J0      -0.096500
      5 C21         -2.1960    11.7830     1.2120 ca         1 3J0      -0.097500
      6 C22         -2.6060    11.6650    -0.1360 ca         1 3J0       0.005000
      7 C24         -0.4340    12.5880    -0.8110 ca         1 3J0      -0.096500
      8 C26         -4.5490    11.2570    -1.7480 cc         1 3J0      -0.152000
      9 O01          9.2020     3.8590    -0.1390 o          1 3J0      -0.697000
     10 C03          7.7560     5.5550     0.6250 cc         1 3J0       0.154500
     11 O04          8.3290     5.1350    -1.6220 o          1 3J0      -0.697000
     12 C05          7.8080     5.3140     1.9800 cd         1 3J0      -0.225000
     13 C06          6.9760     6.2650     2.6110 cd         1 3J0      -0.154000
     14 C07          6.4590     7.0410     1.6070 cc         1 3J0       0.099500
     15 O08          6.9170     6.6280     0.3770 os         1 3J0      -0.221000
     16 C09          5.5300     8.1680     1.7670 ca         1 3J0      -0.047500
     17 C11          4.1190     9.8970     0.7570 ca         1 3J0      -0.073500
     18 C12          3.7200    10.3700     2.0330 ca         1 3J0      -0.154600
     19 C14          5.1390     8.6330     3.0380 ca         1 3J0      -0.120000
     20 N16          2.3110    12.0990     1.0350 ns         1 3J0      -0.407900
     21 S17          2.2750    12.1000     3.7130 s          1 3J0      -0.601400
     22 C18          1.3540    13.1970     0.8900 c3         1 3J0       0.149300
     23 C19         -0.0300    12.6770     0.5320 ca         1 3J0      -0.103300
     24 C23         -1.7090    12.0950    -1.1390 ca         1 3J0      -0.097500
     25 C25         -3.9410    11.1400    -0.5290 cd         1 3J0      -0.147000
     26 C27         -5.7810    10.5620    -1.7110 cc         1 3J0       0.219500
     27 N28         -5.9850     9.9550    -0.5460 nd         1 3J0      -0.483800
     28 N29         -4.8600    10.3260     0.1660 na         1 3J0       0.171000
     29 C30         -4.4460     9.7150     1.3500 ca         1 3J0       0.064800
     30 C31         -3.3850     8.7870     1.3420 ca         1 3J0      -0.111000
     31 C32         -2.9670     8.1780     2.5370 ca         1 3J0       0.135000
     32 C33         -3.6200     8.4830     3.7500 ca         1 3J0       0.097000
     33 C34         -4.6900     9.3950     3.7580 ca         1 3J0      -0.098000
     34 C35         -5.1050    10.0070     2.5610 ca         1 3J0      -0.099000
     35 Cl6         -3.1200     7.7380     5.2690 cl         1 3J0      -0.211000
     36 Cl7         -1.6210     7.0390     2.4880 cl         1 3J0      -0.171000
     37 C38         -6.7100    10.5270    -2.9110 c          1 3J0       0.622500
     38 O39         -6.3930    11.1260    -3.9330 o          1 3J0      -0.707500
     39 O40         -7.7640     9.9030    -2.8400 o          1 3J0      -0.707500
     40 H1           5.2900     8.4810    -0.3640 ha         1 3J0       0.130000
     41 H2           3.9790    10.0350     4.1700 ha         1 3J0       0.117000
     42 H3          -0.6310    12.3540     2.5860 ha         1 3J0       0.107000
     43 H4          -2.8620    11.5270     2.0280 ha         1 3J0       0.122500
     44 H5           0.2420    12.8960    -1.6060 ha         1 3J0       0.107000
     45 H6          -4.1860    11.8020    -2.6130 ha         1 3J0       0.151000
     46 H8           8.3840     4.5340     2.4660 ha         1 3J0       0.139000
     47 H9           6.7900     6.3530     3.6750 ha         1 3J0       0.114000
     48 H10          3.7500    10.3530    -0.1570 ha         1 3J0       0.117000
     49 H11          5.5210     8.1650     3.9410 ha         1 3J0       0.130000
     50 H12          2.6560    11.6870     0.1790 hn         1 3J0       0.314500
     51 H13          1.7120    13.8660     0.0970 h1         1 3J0       0.059700
     52 H14          1.3050    13.7870     1.8140 h1         1 3J0       0.059700
     53 H15         -1.9820    12.0280    -2.1880 ha         1 3J0       0.122500
     54 H16         -2.8790     8.5480     0.4110 ha         1 3J0       0.154000
     55 H17         -5.1970     9.6270     4.6910 ha         1 3J0       0.121000
     56 H18         -5.9330    10.7120     2.5720 ha         1 3J0       0.148000
     57 C02          8.4790     4.7970    -0.4540 c          1 3J0       0.619500
@<TRIPOS>BOND
     1     1    16 ar  
     2     1    17 ar  
     3     1    40 1   
     4     2    18 ar  
     5     2    19 ar  
     6     2    41 1   
     7     3    18 1   
     8     3    20 1   
     9     3    21 2   
    10     4     5 ar  
    11     4    23 ar  
    12     4    42 1   
    13     5     6 ar  
    14     5    43 1   
    15     6    24 ar  
    16     6    25 1   
    17     7    23 ar  
    18     7    24 ar  
    19     7    44 1   
    20     8    25 2   
    21     8    26 1   
    22     8    45 1   
    23     9    57 1   
    24    10    12 2   
    25    10    15 1   
    26    10    57 1   
    27    11    57 1   
    28    12    13 1   
    29    12    46 1   
    30    13    14 2   
    31    13    47 1   
    32    14    15 1   
    33    14    16 1   
    34    16    19 ar  
    35    17    18 ar  
    36    17    48 1   
    37    19    49 1   
    38    20    22 1   
    39    20    50 1   
    40    22    23 1   
    41    22    51 1   
    42    22    52 1   
    43    24    53 1   
    44    25    28 1   
    45    26    27 2   
    46    26    37 1   
    47    27    28 1   
    48    28    29 1   
    49    29    30 ar  
    50    29    34 ar  
    51    30    31 ar  
    52    30    54 1   
    53    31    32 ar  
    54    31    36 1   
    55    32    33 ar  
    56    32    35 1   
    57    33    34 ar  
    58    33    55 1   
    59    34    56 1   
    60    37    38 1   
    61    37    39 1   
@<TRIPOS>SUBSTRUCTURE
     1 3J0         1 TEMP              0 ****  ****    0 ROOT
