@<TRIPOS>MOLECULE
3J0
   57    61     1     0     0
SMALL
abcg2


@<TRIPOS>ATOM
      1 C10          5.1740     8.5750     0.4640 ca         1 3J0      -0.120000
      2 C13          4.2350     8.8960     3.0570 ca         1 3J0      -0.073500
      3 C15          2.4550    10.4770     2.2840 cs         1 3J0       0.420000
      4 C20         -1.1630    12.6110     1.5120 ca         1 3J0      -0.096500
      5 C21         -2.3860    12.2340     0.9790 ca         1 3J0      -0.097500
      6 C22         -2.4460    11.3450    -0.1000 ca         1 3J0       0.005000
      7 C24         -0.0270    11.2550    -0.1060 ca         1 3J0      -0.096500
      8 C26         -4.1570    10.9070    -1.9770 cc         1 3J0      -0.152000
      9 O01         10.1580     5.0240    -1.2440 o          1 3J0      -0.697000
     10 C03          8.5090     6.1160    -0.0080 cc         1 3J0       0.154500
     11 O04          8.8500     6.5190    -2.3060 o          1 3J0      -0.697000
     12 C05          8.6950     5.6340     1.2570 cd         1 3J0      -0.225000
     13 C06          7.7050     6.2310     2.0820 cd         1 3J0      -0.154000
     14 C07          6.9600     7.0490     1.2720 cc         1 3J0       0.099500
     15 O08          7.4490     6.9830    -0.0020 os         1 3J0      -0.221000
     16 C09          5.8180     7.9070     1.5130 ca         1 3J0      -0.047500
     17 C11          4.0900     9.4030     0.7120 ca         1 3J0      -0.073500
     18 C12          3.6050     9.5810     2.0120 ca         1 3J0      -0.154600
     19 C14          5.3260     8.0840     2.8170 ca         1 3J0      -0.120000
     20 N16          2.3950    11.5680     1.5210 ns         1 3J0      -0.407900
     21 S17          1.3120    10.1250     3.4620 s          1 3J0      -0.601400
     22 C18          1.3470    12.5720     1.5720 c3         1 3J0       0.149300
     23 C19          0.0290    12.1220     0.9820 ca         1 3J0      -0.103300
     24 C23         -1.2490    10.8680    -0.6400 ca         1 3J0      -0.097500
     25 C25         -3.7310    10.9230    -0.6670 cd         1 3J0      -0.147000
     26 C27         -5.5100    10.4990    -1.9420 cc         1 3J0       0.219500
     27 N28         -5.8970    10.2640    -0.6900 nd         1 3J0      -0.483800
     28 N29         -4.8120    10.5190     0.0810 na         1 3J0       0.171000
     29 C30         -4.8770    10.2810     1.4740 ca         1 3J0       0.064800
     30 C31         -3.8340     9.6220     2.1130 ca         1 3J0      -0.111000
     31 C32         -3.8830     9.4240     3.4850 ca         1 3J0       0.135000
     32 C33         -4.9890     9.8540     4.2170 ca         1 3J0       0.097000
     33 C34         -6.0420    10.4850     3.5630 ca         1 3J0      -0.098000
     34 C35         -5.9870    10.7070     2.1970 ca         1 3J0      -0.099000
     35 CL6         -5.0810     9.6180     5.9360 cl         1 3J0      -0.211000
     36 CL7         -2.5450     8.6260     4.2540 cl         1 3J0      -0.171000
     37 C38         -6.4460    10.3370    -3.1240 c          1 3J0       0.622500
     38 O39         -5.9410    10.5880    -4.2480 o          1 3J0      -0.707500
     39 O40         -7.6240     9.9760    -2.8910 o          1 3J0      -0.707500
     40 H1           5.5210     8.4400    -0.5510 ha         1 3J0       0.130000
     41 H2           3.8670     9.0220     4.0660 ha         1 3J0       0.117000
     42 H3          -1.1350    13.2850     2.3600 ha         1 3J0       0.107000
     43 H4          -3.3000    12.6240     1.4070 ha         1 3J0       0.122500
     44 H5           0.8890    10.8600    -0.5280 ha         1 3J0       0.107000
     45 H6          -3.5840    11.1930    -2.8410 ha         1 3J0       0.151000
     46 H8           9.4560     4.9320     1.5540 ha         1 3J0       0.139000
     47 H9           7.5570     6.0720     3.1370 ha         1 3J0       0.114000
     48 H10          3.6010     9.8870    -0.1240 ha         1 3J0       0.117000
     49 H11          5.8070     7.5850     3.6470 ha         1 3J0       0.130000
     50 H12          3.1600    11.7440     0.8860 hn         1 3J0       0.314500
     51 H13          1.7220    13.4360     1.0230 h1         1 3J0       0.059700
     52 H14          1.1940    12.8750     2.6090 h1         1 3J0       0.059700
     53 H15         -1.2800    10.1740    -1.4700 ha         1 3J0       0.122500
     54 H16         -2.9820     9.2640     1.5540 ha         1 3J0       0.154000
     55 H17         -6.8970    10.8160     4.1350 ha         1 3J0       0.121000
     56 H18         -6.7960    11.2160     1.6930 ha         1 3J0       0.148000
     57 C02          9.2300     5.8700    -1.3020 c          1 3J0       0.619500
@<TRIPOS>BOND
     1     1    16 ar  
     2     1    17 ar  
     3     1    40 1   
     4     2    18 ar  
     5     2    19 ar  
     6     2    41 1   
     7     3    18 1   
     8     3    20 1   
     9     3    21 2   
    10     4     5 ar  
    11     4    23 ar  
    12     4    42 1   
    13     5     6 ar  
    14     5    43 1   
    15     6    24 ar  
    16     6    25 1   
    17     7    23 ar  
    18     7    24 ar  
    19     7    44 1   
    20     8    25 2   
    21     8    26 1   
    22     8    45 1   
    23     9    57 1   
    24    10    12 2   
    25    10    15 1   
    26    10    57 1   
    27    11    57 1   
    28    12    13 1   
    29    12    46 1   
    30    13    14 2   
    31    13    47 1   
    32    14    15 1   
    33    14    16 1   
    34    16    19 ar  
    35    17    18 ar  
    36    17    48 1   
    37    19    49 1   
    38    20    22 1   
    39    20    50 1   
    40    22    23 1   
    41    22    51 1   
    42    22    52 1   
    43    24    53 1   
    44    25    28 1   
    45    26    27 2   
    46    26    37 1   
    47    27    28 1   
    48    28    29 1   
    49    29    30 ar  
    50    29    34 ar  
    51    30    31 ar  
    52    30    54 1   
    53    31    32 ar  
    54    31    36 1   
    55    32    33 ar  
    56    32    35 1   
    57    33    34 ar  
    58    33    55 1   
    59    34    56 1   
    60    37    38 1   
    61    37    39 1   
@<TRIPOS>SUBSTRUCTURE
     1 3J0         1 TEMP              0 ****  ****    0 ROOT
