@<TRIPOS>MOLECULE
3J1
   41    44     1     0     0
SMALL
abcg2


@<TRIPOS>ATOM
      1 C1          -5.2660     1.1290     0.0560 cc         1 3J1      -0.146000
      2 C2          -4.5480    -0.0530    -0.0110 cd         1 3J1      -0.174000
      3 C3          -5.5510    -1.0400    -0.1050 cd         1 3J1       0.260900
      4 C7          -0.3030    -0.5590     0.0330 ca         1 3J1      -0.164900
      5 C8          -1.1450    -1.6150    -0.3120 ca         1 3J1      -0.065500
      6 C9          -2.5190    -1.4480    -0.3290 ca         1 3J1      -0.122000
      7 C10          1.1620    -0.6850     0.0500 cc         1 3J1       0.570500
      8 C11          3.0470    -2.2100     0.1700 c          1 3J1       0.579600
      9 C12          3.8800    -1.0190     0.0800 ca         1 3J1      -0.204600
     10 C13          5.2740    -1.1200     0.0950 ca         1 3J1      -0.041000
     11 C14          6.0320     0.0260     0.0230 ca         1 3J1      -0.137000
     12 C15          5.4140     1.2800    -0.0630 ca         1 3J1      -0.051000
     13 C16          4.0400     1.4040    -0.0800 ca         1 3J1      -0.080300
     14 O            3.4540    -3.3540     0.2610 o          1 3J1      -0.539000
     15 N2           1.6960    -1.9360     0.1580 ns         1 3J1      -0.427400
     16 C17          3.2550     0.2340    -0.0070 ca         1 3J1       0.192400
     17 C18          3.3440     2.7320    -0.1750 c3         1 3J1       0.215900
     18 O1           4.2940     3.7650    -0.2110 oh         1 3J1      -0.667000
     19 N3           1.8920     0.3720    -0.0310 nd         1 3J1      -0.649100
     20 C6          -0.8800     0.6700     0.3600 ca         1 3J1      -0.065500
     21 C5          -2.2500     0.8300     0.3550 ca         1 3J1      -0.122000
     22 C4          -3.1020    -0.2240     0.0060 ca         1 3J1       0.051000
     23 N1          -6.7570    -0.5090    -0.0940 nc         1 3J1      -0.521800
     24 N           -6.5640     0.8040     0.0010 na         1 3J1       0.137800
     25 C           -7.6920     1.7040     0.0300 c3         1 3J1       0.070900
     26 H1          -4.9440     2.1550     0.1280 h4         1 3J1       0.155000
     27 H2          -5.4340    -2.1120    -0.1680 h4         1 3J1       0.040100
     28 H3          -0.7510    -2.5790    -0.6070 ha         1 3J1       0.123500
     29 H4          -3.1390    -2.2840    -0.6250 ha         1 3J1       0.116000
     30 H5           5.7430    -2.0920     0.1650 ha         1 3J1       0.135000
     31 H6           7.1110    -0.0360     0.0330 ha         1 3J1       0.119000
     32 H7           6.0360     2.1620    -0.1180 ha         1 3J1       0.135000
     33 H8           1.0820    -2.7320     0.2700 hn         1 3J1       0.331500
     34 H9           2.7070     2.7340    -1.0690 h1         1 3J1       0.038200
     35 H10          2.6620     2.8360     0.6790 h1         1 3J1       0.038200
     36 H11          3.8210     4.6000    -0.2680 ho         1 3J1       0.446000
     37 H12         -0.2440     1.5010     0.6320 ha         1 3J1       0.123500
     38 H13         -2.6630     1.7900     0.6380 ha         1 3J1       0.116000
     39 H14         -8.2870     1.5930    -0.8740 h1         1 3J1       0.058700
     40 H15         -8.3170     1.5000     0.8970 h1         1 3J1       0.058700
     41 H16         -7.3270     2.7240     0.0910 h1         1 3J1       0.058700
@<TRIPOS>BOND
     1     1     2 2   
     2     1    24 1   
     3     1    26 1   
     4     2     3 1   
     5     2    22 1   
     6     3    23 2   
     7     3    27 1   
     8     4     5 ar  
     9     4     7 1   
    10     4    20 ar  
    11     5     6 ar  
    12     5    28 1   
    13     6    22 ar  
    14     6    29 1   
    15     7    15 1   
    16     7    19 2   
    17     8     9 1   
    18     8    14 2   
    19     8    15 1   
    20     9    10 ar  
    21     9    16 ar  
    22    10    11 ar  
    23    10    30 1   
    24    11    12 ar  
    25    11    31 1   
    26    12    13 ar  
    27    12    32 1   
    28    13    16 ar  
    29    13    17 1   
    30    15    33 1   
    31    16    19 1   
    32    17    18 1   
    33    17    34 1   
    34    17    35 1   
    35    18    36 1   
    36    20    21 ar  
    37    20    37 1   
    38    21    22 ar  
    39    21    38 1   
    40    23    24 1   
    41    24    25 1   
    42    25    39 1   
    43    25    40 1   
    44    25    41 1   
@<TRIPOS>SUBSTRUCTURE
     1 3J1         1 TEMP              0 ****  ****    0 ROOT
