@<TRIPOS>MOLECULE
3J1
   41    44     1     0     0
SMALL
No Charge or Current Charge


@<TRIPOS>ATOM
      1 C1          -5.3530     1.0750     0.2280 cc         1 3J1      -0.146000
      2 C2          -4.6280    -0.0430    -0.0910 cd         1 3J1      -0.174000
      3 C3          -5.5720    -1.0260    -0.4770 cd         1 3J1       0.260900
      4 C7          -0.3230    -0.4710     0.0810 ca         1 3J1      -0.164900
      5 C8          -1.1440    -1.5400    -0.3510 ca         1 3J1      -0.065500
      6 C9          -2.5410    -1.3990    -0.4010 ca         1 3J1      -0.122000
      7 C10          1.1460    -0.5890     0.1010 cc         1 3J1       0.570500
      8 C11          2.9490    -2.1600     0.3880 c          1 3J1       0.579600
      9 C12          3.8590    -1.0070     0.1910 ca         1 3J1      -0.204600
     10 C13          5.2560    -1.1900     0.2110 ca         1 3J1      -0.041000
     11 C14          6.1070    -0.0970     0.0170 ca         1 3J1      -0.137000
     12 C15          5.5690     1.1810    -0.1860 ca         1 3J1      -0.051000
     13 C16          4.1700     1.3830    -0.1910 ca         1 3J1      -0.080300
     14 O            3.3240    -3.3040     0.5910 o          1 3J1      -0.539000
     15 N2           1.6400    -1.8430     0.3300 ns         1 3J1      -0.427400
     16 C17          3.3000     0.2730    -0.0140 ca         1 3J1       0.192400
     17 C18          3.6050     2.7940    -0.4270 c3         1 3J1       0.215900
     18 O1           4.4890     3.8190     0.0560 oh         1 3J1      -0.667000
     19 N3           1.9080     0.4940    -0.0610 nd         1 3J1      -0.649100
     20 C6          -0.9470     0.7520     0.4170 ca         1 3J1      -0.065500
     21 C5          -2.3450     0.8870     0.3660 ca         1 3J1      -0.122000
     22 C4          -3.1600    -0.1870    -0.0380 ca         1 3J1       0.051000
     23 N1          -6.8190    -0.6000    -0.4210 nc         1 3J1      -0.521800
     24 N           -6.6750     0.6990     0.0150 na         1 3J1       0.137800
     25 C           -7.8620     1.5430     0.2120 c3         1 3J1       0.070900
     26 H1          -5.0670     2.0610     0.5710 h4         1 3J1       0.155000
     27 H2          -5.3850    -2.0430    -0.7980 h4         1 3J1       0.040100
     28 H3          -0.7090    -2.4870    -0.6660 ha         1 3J1       0.123500
     29 H4          -3.1380    -2.2440    -0.7330 ha         1 3J1       0.116000
     30 H5           5.6830    -2.1790     0.3700 ha         1 3J1       0.135000
     31 H6           7.1860    -0.2380     0.0240 ha         1 3J1       0.119000
     32 H7           6.2470     2.0170    -0.3430 ha         1 3J1       0.135000
     33 H8           0.9950    -2.6000     0.4850 hn         1 3J1       0.331500
     34 H9           3.4300     2.9220    -1.5040 h1         1 3J1       0.038200
     35 H10          2.6340     2.8980     0.0740 h1         1 3J1       0.038200
     36 H11          4.0470     4.6790    -0.1240 ho         1 3J1       0.446000
     37 H12         -0.3500     1.6050     0.7320 ha         1 3J1       0.123500
     38 H13         -2.7870     1.8400     0.6440 ha         1 3J1       0.116000
     39 H14         -8.4040     1.6410    -0.7360 h1         1 3J1       0.058700
     40 H15         -8.5170     1.0850     0.9620 h1         1 3J1       0.058700
     41 H16         -7.5560     2.5380     0.5580 h1         1 3J1       0.058700
@<TRIPOS>BOND
     1     1     2 2   
     2     1    24 1   
     3     1    26 1   
     4     2     3 1   
     5     2    22 1   
     6     3    23 2   
     7     3    27 1   
     8     4     5 ar  
     9     4     7 1   
    10     4    20 ar  
    11     5     6 ar  
    12     5    28 1   
    13     6    22 ar  
    14     6    29 1   
    15     7    15 1   
    16     7    19 2   
    17     8     9 1   
    18     8    14 2   
    19     8    15 1   
    20     9    10 ar  
    21     9    16 ar  
    22    10    11 ar  
    23    10    30 1   
    24    11    12 ar  
    25    11    31 1   
    26    12    13 ar  
    27    12    32 1   
    28    13    16 ar  
    29    13    17 1   
    30    15    33 1   
    31    16    19 1   
    32    17    18 1   
    33    17    34 1   
    34    17    35 1   
    35    18    36 1   
    36    20    21 ar  
    37    20    37 1   
    38    21    22 ar  
    39    21    38 1   
    40    23    24 1   
    41    24    25 1   
    42    25    39 1   
    43    25    40 1   
    44    25    41 1   
@<TRIPOS>SUBSTRUCTURE
     1 3J1         1 TEMP              0 ****  ****    0 ROOT
