@<TRIPOS>MOLECULE
3J2
   48    52     1     0     0
SMALL
No Charge or Current Charge


@<TRIPOS>ATOM
      1 C1          -3.9990     1.3560    -0.1120 c3         1 3J2      -0.027500
      2 C2          -5.1300     1.2150     0.9350 c3         1 3J2      -0.087600
      3 C3          -2.9800     0.2310    -0.0150 cc         1 3J2       0.183900
      4 C4          -1.5840     0.3240     0.0240 cd         1 3J2      -0.270200
      5 C5          -0.9280     1.7070    -0.0330 c6         1 3J2       0.246500
      6 C6           0.5500     1.7190    -0.5510 c5         1 3J2       0.185300
      7 C7           1.1720     0.3390    -0.8370 c5         1 3J2      -0.084700
      8 C8           2.6930     0.7230    -0.8980 c5         1 3J2      -0.156000
      9 O1          -3.5420    -1.0210     0.0190 os         1 3J2      -0.338200
     10 O3           4.3360    -0.5440     0.5750 oh         1 3J2      -0.696000
     11 O5           1.4750     2.3230     0.3880 os         1 3J2      -0.399100
     12 O6          -1.0180     2.3360     1.2490 oh         1 3J2      -0.624000
     13 C17          2.7490     1.8580     0.1630 c          1 3J2       0.676100
     14 C18          3.0780     1.3460    -2.2790 c3         1 3J2      -0.088100
     15 C9           3.6330    -0.5560    -0.6680 c6         1 3J2       0.219300
     16 C10          2.9330    -1.9560    -0.7510 cx         1 3J2       0.024300
     17 O2           2.5790    -2.5900     0.5040 op         1 3J2      -0.411000
     18 C11          1.4940    -2.0680    -0.3060 cx         1 3J2       0.099300
     19 C12          0.7630    -0.7790     0.1830 c6         1 3J2       0.013200
     20 C16          1.1120    -0.4910     1.6870 c3         1 3J2      -0.091100
     21 C13         -0.7650    -0.8740     0.1330 cd         1 3J2       0.054800
     22 C14         -1.4280    -2.0720     0.2490 cc         1 3J2      -0.352200
     23 C15         -2.8690    -2.1860     0.1890 c          1 3J2       0.671300
     24 O           -3.4480    -3.2570     0.2780 o          1 3J2      -0.484000
     25 C           -4.5650     1.4750    -1.5440 c3         1 3J2      -0.087600
     26 H1          -3.5130     2.3100     0.1150 hc         1 3J2       0.060700
     27 H2          -4.7110     1.1440     1.9450 hc         1 3J2       0.047200
     28 H3          -5.7960     2.0870     0.9050 hc         1 3J2       0.047200
     29 H4          -5.7350     0.3200     0.7480 hc         1 3J2       0.047200
     30 H5          -1.4880     2.3130    -0.7590 h1         1 3J2       0.040700
     31 H6           0.5630     2.3270    -1.4650 h1         1 3J2       0.056700
     32 H7           0.8230    -0.0280    -1.8120 hc         1 3J2       0.070700
     33 H8           4.0690    -1.3910     1.0110 ho         1 3J2       0.524000
     34 H9          -0.1160     2.6890     1.4160 ho         1 3J2       0.445000
     35 H10          2.4950     2.2430    -2.5180 hc         1 3J2       0.049367
     36 H11          4.1340     1.6440    -2.2950 hc         1 3J2       0.049367
     37 H12          2.9260     0.6290    -3.0950 hc         1 3J2       0.049367
     38 H13          4.3870    -0.5680    -1.4700 h1         1 3J2       0.049700
     39 H14          3.2950    -2.6260    -1.5310 h1         1 3J2       0.095700
     40 H15          0.8860    -2.8030    -0.8330 h1         1 3J2       0.097700
     41 H16          0.5550     0.3620     2.0860 hc         1 3J2       0.064367
     42 H17          0.8460    -1.3510     2.3140 hc         1 3J2       0.064367
     43 H18          2.1700    -0.2860     1.8610 hc         1 3J2       0.064367
     44 H19         -0.9210    -3.0160     0.4010 ha         1 3J2       0.219000
     45 H20         -5.2560     2.3230    -1.6200 hc         1 3J2       0.047200
     46 H21         -3.7540     1.6320    -2.2660 hc         1 3J2       0.047200
     47 H22         -5.1050     0.5640    -1.8280 hc         1 3J2       0.047200
     48 O4           3.7240     2.3020     0.7520 o          1 3J2      -0.460000
@<TRIPOS>BOND
     1     1     2 1   
     2     1     3 1   
     3     1    25 1   
     4     1    26 1   
     5     2    27 1   
     6     2    28 1   
     7     2    29 1   
     8     3     4 2   
     9     3     9 1   
    10     4     5 1   
    11     4    21 1   
    12     5     6 1   
    13     5    12 1   
    14     5    30 1   
    15     6     7 1   
    16     6    11 1   
    17     6    31 1   
    18     7     8 1   
    19     7    19 1   
    20     7    32 1   
    21     8    13 1   
    22     8    14 1   
    23     8    15 1   
    24     9    23 1   
    25    10    15 1   
    26    10    33 1   
    27    11    13 1   
    28    12    34 1   
    29    13    48 2   
    30    14    35 1   
    31    14    36 1   
    32    14    37 1   
    33    15    16 1   
    34    15    38 1   
    35    16    17 1   
    36    16    18 1   
    37    16    39 1   
    38    17    18 1   
    39    18    19 1   
    40    18    40 1   
    41    19    20 1   
    42    19    21 1   
    43    20    41 1   
    44    20    42 1   
    45    20    43 1   
    46    21    22 2   
    47    22    23 1   
    48    22    44 1   
    49    23    24 2   
    50    25    45 1   
    51    25    46 1   
    52    25    47 1   
@<TRIPOS>SUBSTRUCTURE
     1 3J2         1 TEMP              0 ****  ****    0 ROOT
