@<TRIPOS>MOLECULE
3J2
   48    52     1     0     0
SMALL
bcc


@<TRIPOS>ATOM
      1 C1          -3.8660     1.3700    -0.2050 c3         1 3J2      -0.027500
      2 C2          -4.7480     1.3710     1.0470 c3         1 3J2      -0.087600
      3 C3          -2.8550     0.2640    -0.1360 cc         1 3J2       0.183900
      4 C4          -1.5070     0.3650    -0.0210 cd         1 3J2      -0.270200
      5 C5          -0.8390     1.7170     0.1260 c6         1 3J2       0.223300
      6 C6           0.5400     1.7160    -0.5590 c5         1 3J2       0.162100
      7 C7           1.1630     0.3550    -0.8150 c5         1 3J2      -0.084700
      8 C8           2.6600     0.6900    -0.8750 c5         1 3J2      -0.156000
      9 O1          -3.4560    -0.9350    -0.1770 os         1 3J2      -0.338200
     10 O3           4.0380    -0.2940     0.8670 oh         1 3J2      -0.573800
     11 O5           1.5170     2.4360     0.1960 os         1 3J2      -0.375900
     12 O6          -0.6960     2.1010     1.4740 oh         1 3J2      -0.561800
     13 C17          2.7440     1.9370    -0.0090 c          1 3J2       0.751600
     14 C18          3.0290     1.1090    -2.3090 c3         1 3J2      -0.088100
     15 C9           3.6120    -0.4620    -0.4570 c6         1 3J2       0.196100
     16 C10          2.9140    -1.8030    -0.7050 cx         1 3J2       0.001100
     17 O2           2.5170    -2.5570     0.4270 op         1 3J2      -0.364600
     18 C11          1.5030    -1.9720    -0.3610 cx         1 3J2       0.076100
     19 C12          0.7550    -0.7530     0.1740 c6         1 3J2       0.013200
     20 C16          1.0420    -0.5210     1.6680 c3         1 3J2      -0.091100
     21 C13         -0.7490    -0.8620     0.0520 cd         1 3J2       0.054800
     22 C14         -1.3890    -2.0550     0.0440 cc         1 3J2      -0.302200
     23 C15         -2.8130    -2.1340    -0.0670 c          1 3J2       0.746800
     24 O           -3.4980    -3.1280    -0.0850 o          1 3J2      -0.559500
     25 C           -4.7130     1.2740    -1.4760 c3         1 3J2      -0.087600
     26 H1          -3.3330     2.3200    -0.2380 hc         1 3J2       0.060700
     27 H2          -4.1580     1.4480     1.9620 hc         1 3J2       0.047200
     28 H3          -5.4230     2.2260     1.0140 hc         1 3J2       0.047200
     29 H4          -5.3550     0.4680     1.1090 hc         1 3J2       0.047200
     30 H5          -1.4400     2.4620    -0.4010 h1         1 3J2       0.040700
     31 H6           0.4180     2.2290    -1.5170 h1         1 3J2       0.056700
     32 H7           0.8310     0.0070    -1.7980 hc         1 3J2       0.070700
     33 H8           4.4550    -1.1080     1.1690 ho         1 3J2       0.425000
     34 H9          -1.5720     2.1300     1.8720 ho         1 3J2       0.406000
     35 H10          2.3740     1.8880    -2.7010 hc         1 3J2       0.049367
     36 H11          4.0540     1.4780    -2.3530 hc         1 3J2       0.049367
     37 H12          2.9490     0.2480    -2.9730 hc         1 3J2       0.049367
     38 H13          4.4790    -0.4300    -1.1290 h1         1 3J2       0.049700
     39 H14          3.3260    -2.3910    -1.5220 h1         1 3J2       0.095700
     40 H15          0.9260    -2.6760    -0.9570 h1         1 3J2       0.097700
     41 H16          0.4550     0.3050     2.0550 hc         1 3J2       0.064367
     42 H17          0.7570    -1.4140     2.2240 hc         1 3J2       0.064367
     43 H18          2.0880    -0.3220     1.8660 hc         1 3J2       0.064367
     44 H19         -0.8600    -2.9950     0.1230 ha         1 3J2       0.169000
     45 H20         -5.3760     2.1380    -1.5320 hc         1 3J2       0.047200
     46 H21         -4.0950     1.2690    -2.3740 hc         1 3J2       0.047200
     47 H22         -5.3330     0.3780    -1.4800 hc         1 3J2       0.047200
     48 O4           3.7170     2.4960     0.4070 o          1 3J2      -0.535500
@<TRIPOS>BOND
     1     1     2 1   
     2     1     3 1   
     3     1    25 1   
     4     1    26 1   
     5     2    27 1   
     6     2    28 1   
     7     2    29 1   
     8     3     4 2   
     9     3     9 1   
    10     4     5 1   
    11     4    21 1   
    12     5     6 1   
    13     5    12 1   
    14     5    30 1   
    15     6     7 1   
    16     6    11 1   
    17     6    31 1   
    18     7     8 1   
    19     7    19 1   
    20     7    32 1   
    21     8    13 1   
    22     8    14 1   
    23     8    15 1   
    24     9    23 1   
    25    10    15 1   
    26    10    33 1   
    27    11    13 1   
    28    12    34 1   
    29    13    48 2   
    30    14    35 1   
    31    14    36 1   
    32    14    37 1   
    33    15    16 1   
    34    15    38 1   
    35    16    17 1   
    36    16    18 1   
    37    16    39 1   
    38    17    18 1   
    39    18    19 1   
    40    18    40 1   
    41    19    20 1   
    42    19    21 1   
    43    20    41 1   
    44    20    42 1   
    45    20    43 1   
    46    21    22 2   
    47    22    23 1   
    48    22    44 1   
    49    23    24 2   
    50    25    45 1   
    51    25    46 1   
    52    25    47 1   
@<TRIPOS>SUBSTRUCTURE
     1 3J2         1 TEMP              0 ****  ****    0 ROOT
