@<TRIPOS>MOLECULE
3J5
   63    67     1     0     0
SMALL
No Charge or Current Charge


@<TRIPOS>ATOM
      1 C1          -2.5920    -0.2930    -1.4420 ca         1 3J5       0.021700
      2 C2          -3.9920    -0.3720    -1.3700 ca         1 3J5      -0.242000
      3 C3          -4.6550    -0.0500    -0.1730 ca         1 3J5       0.629900
      4 C7           0.4340    -0.8620    -0.5930 ca         1 3J5      -0.115500
      5 C8           1.8330    -0.7560    -0.5260 ca         1 3J5      -0.071000
      6 C9           2.4490     0.4420    -0.0970 ca         1 3J5      -0.156900
      7 C10          1.6170     1.5120     0.3110 ca         1 3J5      -0.071000
      8 C11          0.2180     1.3980     0.2440 ca         1 3J5      -0.115500
      9 C12          3.9170     0.5300     0.0040 cc         1 3J5       0.568500
     10 C13          5.7650     2.0730    -0.0780 c          1 3J5       0.578600
     11 C14          6.6360     0.8950     0.1460 ca         1 3J5      -0.203600
     12 C15          8.0330     1.0500     0.2440 ca         1 3J5      -0.041000
     13 C16          8.8470    -0.0670     0.4620 ca         1 3J5      -0.136000
     14 C19          6.0400    -0.3790     0.2570 ca         1 3J5       0.191400
     15 C21         -6.9000    -0.8390    -1.0410 c6         1 3J5       0.177800
     16 C22         -8.2980    -1.2710    -0.4840 c6         1 3J5       0.159800
     17 C24         -6.8060     0.9420     0.7310 c6         1 3J5       0.184800
     18 O            6.1760     3.2160    -0.2060 o          1 3J5      -0.539000
     19 N1           4.4510     1.7810    -0.1360 ns         1 3J5      -0.426400
     20 C18          6.8730    -1.5130     0.4600 ca         1 3J5      -0.079300
     21 O1           7.1740    -3.9490     0.1780 oh         1 3J5      -0.667000
     22 C17          8.2720    -1.3400     0.5740 ca         1 3J5      -0.051000
     23 N2           4.6450    -0.5730     0.1850 nd         1 3J5      -0.648100
     24 C6          -0.4000     0.2170    -0.2230 cp         1 3J5       0.018000
     25 C5          -1.8880     0.1060    -0.2780 cp         1 3J5      -0.166000
     26 C           -1.9020    -0.6040    -2.7650 c3         1 3J5      -0.057800
     27 C4          -2.6550     0.4180     0.8690 ca         1 3J5       0.404900
     28 N           -4.0000     0.3430     0.9290 nb         1 3J5      -0.746000
     29 N3          -6.0560    -0.1170    -0.0340 nh         1 3J5      -0.769300
     30 C23         -8.2040     0.4580     1.2610 c6         1 3J5       0.175500
     31 C25         -8.0350    -0.4940     2.4800 c3         1 3J5      -0.080100
     32 N4          -9.0430    -0.1520     0.1780 n3         1 3J5      -0.718600
     33 C26         -9.5600     0.8440    -0.7910 c3         1 3J5       0.155100
     34 H1          -4.5560    -0.6660    -2.2480 ha         1 3J5       0.120000
     35 H2          -0.0110    -1.7980    -0.9220 ha         1 3J5       0.121000
     36 H3           2.4380    -1.6120    -0.8200 ha         1 3J5       0.125000
     37 H4           2.0410     2.4360     0.6980 ha         1 3J5       0.125000
     38 H5          -0.3980     2.2390     0.5550 ha         1 3J5       0.121000
     39 H6           8.4890     2.0360     0.1580 ha         1 3J5       0.135000
     40 H7           9.9250     0.0520     0.5470 ha         1 3J5       0.120000
     41 H8           5.9730    -3.0710     1.6430 h1         1 3J5       0.038700
     42 H9           5.3490    -2.9880    -0.0090 h1         1 3J5       0.038700
     43 H10         -6.3860    -1.7490    -1.3830 h1         1 3J5       0.043700
     44 H11         -7.0480    -0.1990    -1.9230 h1         1 3J5       0.043700
     45 H12         -8.8910    -1.6920    -1.3090 h1         1 3J5       0.059700
     46 H13         -8.1430    -2.0950     0.2260 h1         1 3J5       0.059700
     47 H14         -6.2290     1.2990     1.5960 h1         1 3J5       0.058700
     48 H15         -6.9600     1.8150     0.0820 h1         1 3J5       0.058700
     49 H16          3.8330     2.5570    -0.3130 hn         1 3J5       0.330500
     50 H17          6.7000    -4.8040     0.2880 ho         1 3J5       0.447000
     51 H18          8.9210    -2.1950     0.7510 ha         1 3J5       0.136000
     52 H19         -1.5680    -1.6480    -2.7990 hc         1 3J5       0.049367
     53 H20         -2.5770    -0.4460    -3.6150 hc         1 3J5       0.049367
     54 H21         -1.0290     0.0390    -2.9260 hc         1 3J5       0.049367
     55 H22         -2.1590     0.7340     1.7870 h4         1 3J5       0.017100
     56 H23         -8.7250     1.3440     1.6530 h1         1 3J5       0.058700
     57 H24         -7.4140    -1.3650     2.2430 hc         1 3J5       0.041700
     58 H25         -7.5560     0.0290     3.3170 hc         1 3J5       0.041700
     59 H26         -9.0070    -0.8570     2.8330 hc         1 3J5       0.041700
     60 H28        -10.2170     0.3610    -1.5260 h1         1 3J5       0.030700
     61 H29        -10.1460     1.6160    -0.2740 h1         1 3J5       0.030700
     62 H30         -8.7460     1.3400    -1.3350 h1         1 3J5       0.030700
     63 C20          6.2640    -2.9180     0.5950 c3         1 3J5       0.215900
@<TRIPOS>BOND
     1     1     2 ar  
     2     1    25 ar  
     3     1    26 1   
     4     2     3 ar  
     5     2    34 1   
     6     3    28 ar  
     7     3    29 1   
     8     4     5 ar  
     9     4    24 ar  
    10     4    35 1   
    11     5     6 ar  
    12     5    36 1   
    13     6     7 ar  
    14     6     9 1   
    15     7     8 ar  
    16     7    37 1   
    17     8    24 ar  
    18     8    38 1   
    19     9    19 1   
    20     9    23 2   
    21    10    11 1   
    22    10    18 2   
    23    10    19 1   
    24    11    12 ar  
    25    11    14 ar  
    26    12    13 ar  
    27    12    39 1   
    28    13    22 ar  
    29    13    40 1   
    30    14    20 ar  
    31    14    23 1   
    32    15    16 1   
    33    15    29 1   
    34    15    43 1   
    35    15    44 1   
    36    16    32 1   
    37    16    45 1   
    38    16    46 1   
    39    17    29 1   
    40    17    30 1   
    41    17    47 1   
    42    17    48 1   
    43    19    49 1   
    44    20    22 ar  
    45    20    63 1   
    46    21    50 1   
    47    21    63 1   
    48    22    51 1   
    49    24    25 1   
    50    25    27 ar  
    51    26    52 1   
    52    26    53 1   
    53    26    54 1   
    54    27    28 ar  
    55    27    55 1   
    56    30    31 1   
    57    30    32 1   
    58    30    56 1   
    59    31    57 1   
    60    31    58 1   
    61    31    59 1   
    62    32    33 1   
    63    33    60 1   
    64    33    61 1   
    65    33    62 1   
    66    41    63 1   
    67    42    63 1   
@<TRIPOS>SUBSTRUCTURE
     1 3J5         1 TEMP              0 ****  ****    0 ROOT
