@<TRIPOS>MOLECULE
3J5
   63    67     1     0     0
SMALL
abcg2


@<TRIPOS>ATOM
      1 C1          -2.5450    -0.4220    -1.3700 ca         1 3J5       0.021700
      2 C2          -3.9260    -0.4740    -1.3300 ca         1 3J5      -0.242000
      3 C3          -4.6350     0.0700    -0.2430 ca         1 3J5       0.629900
      4 C7           0.4390    -0.7750    -0.4240 ca         1 3J5      -0.115500
      5 C8           1.8100    -0.6530    -0.3200 ca         1 3J5      -0.071000
      6 C9           2.3950     0.5720     0.0050 ca         1 3J5      -0.156900
      7 C10          1.5610     1.6650     0.2360 ca         1 3J5      -0.071000
      8 C11          0.1870     1.5390     0.1240 ca         1 3J5      -0.115500
      9 C12          3.8630     0.6510     0.1010 cc         1 3J5       0.568500
     10 C13          5.8010     2.1100     0.1930 c          1 3J5       0.578600
     11 C14          6.5870     0.8870     0.2800 ca         1 3J5      -0.203600
     12 C15          7.9810     0.9370     0.3670 ca         1 3J5      -0.041000
     13 C16          8.6930    -0.2380     0.4300 ca         1 3J5      -0.136000
     14 C19          5.9160    -0.3440     0.2580 ca         1 3J5       0.191400
     15 C21         -6.7890    -0.6610    -1.1650 c6         1 3J5       0.177800
     16 C22         -8.0780    -1.2170    -0.5620 c6         1 3J5       0.159800
     17 C24         -6.7300     0.9700     0.6390 c6         1 3J5       0.184800
     18 O            6.2510     3.2420     0.1900 o          1 3J5      -0.539000
     19 N1           4.4450     1.8850     0.0950 ns         1 3J5      -0.426400
     20 C18          6.6540    -1.5450     0.3210 ca         1 3J5      -0.079300
     21 O1           6.8200    -3.9170     0.3440 oh         1 3J5      -0.667000
     22 C17          8.0290    -1.4710     0.4060 ca         1 3J5      -0.051000
     23 N2           4.5510    -0.4340     0.1790 nd         1 3J5      -0.648100
     24 C6          -0.4050     0.3200    -0.2140 cp         1 3J5       0.018000
     25 C5          -1.8690     0.2000    -0.3040 cp         1 3J5      -0.166000
     26 C           -1.8390    -0.9870    -2.5660 c3         1 3J5      -0.057800
     27 C4          -2.6650     0.7470     0.6970 ca         1 3J5       0.404900
     28 N           -3.9830     0.6940     0.7420 nb         1 3J5      -0.746000
     29 N3          -5.9950    -0.0170    -0.1360 nh         1 3J5      -0.769300
     30 C23         -8.0040     0.3690     1.2340 c6         1 3J5       0.175500
     31 C25         -7.6900    -0.5930     2.3740 c3         1 3J5      -0.080100
     32 N4          -8.8420    -0.2660     0.2190 n3         1 3J5      -0.718600
     33 C26         -9.5830     0.6770    -0.5950 c3         1 3J5       0.155100
     34 H1          -4.4440    -0.9110    -2.1720 ha         1 3J5       0.120000
     35 H2           0.0200    -1.7450    -0.6560 ha         1 3J5       0.121000
     36 H3           2.4400    -1.5150    -0.4880 ha         1 3J5       0.125000
     37 H4           1.9550     2.6310     0.5220 ha         1 3J5       0.125000
     38 H5          -0.4330     2.4110     0.2900 ha         1 3J5       0.121000
     39 H6           8.4870     1.8920     0.3840 ha         1 3J5       0.135000
     40 H7           9.7720    -0.2160     0.4960 ha         1 3J5       0.120000
     41 H8           5.2080    -2.8740     1.1390 h1         1 3J5       0.038700
     42 H9           5.2900    -2.8860    -0.6110 h1         1 3J5       0.038700
     43 H10         -6.2440    -1.5020    -1.5890 h1         1 3J5       0.043700
     44 H11         -7.0030     0.0350    -1.9860 h1         1 3J5       0.043700
     45 H12         -8.7040    -1.6030    -1.3690 h1         1 3J5       0.059700
     46 H13         -7.8200    -2.0740     0.0660 h1         1 3J5       0.059700
     47 H14         -6.0970     1.3480     1.4360 h1         1 3J5       0.058700
     48 H15         -6.9860     1.8240    -0.0030 h1         1 3J5       0.058700
     49 H16          3.8690     2.7090    -0.0140 hn         1 3J5       0.330500
     50 H17          6.3190    -4.7370     0.3170 ho         1 3J5       0.447000
     51 H18          8.6160    -2.3780     0.4550 ha         1 3J5       0.136000
     52 H19         -1.4930    -2.0050    -2.3780 hc         1 3J5       0.049367
     53 H20         -2.5100    -1.0300    -3.4220 hc         1 3J5       0.049367
     54 H21         -0.9660    -0.3980    -2.8460 hc         1 3J5       0.049367
     55 H22         -2.1890     1.2500     1.5340 h4         1 3J5       0.017100
     56 H23         -8.5800     1.2000     1.6520 h1         1 3J5       0.058700
     57 H24         -7.0510    -1.4190     2.0620 hc         1 3J5       0.041700
     58 H25         -7.1700    -0.0670     3.1750 hc         1 3J5       0.041700
     59 H26         -8.6080    -1.0120     2.7850 hc         1 3J5       0.041700
     60 H28        -10.2590     0.1330    -1.2560 h1         1 3J5       0.030700
     61 H29        -10.1950     1.3110     0.0490 h1         1 3J5       0.030700
     62 H30         -8.9770     1.3420    -1.2260 h1         1 3J5       0.030700
     63 C20          5.9090    -2.8500     0.2950 c3         1 3J5       0.215900
@<TRIPOS>BOND
     1     1     2 ar  
     2     1    25 ar  
     3     1    26 1   
     4     2     3 ar  
     5     2    34 1   
     6     3    28 ar  
     7     3    29 1   
     8     4     5 ar  
     9     4    24 ar  
    10     4    35 1   
    11     5     6 ar  
    12     5    36 1   
    13     6     7 ar  
    14     6     9 1   
    15     7     8 ar  
    16     7    37 1   
    17     8    24 ar  
    18     8    38 1   
    19     9    19 1   
    20     9    23 2   
    21    10    11 1   
    22    10    18 2   
    23    10    19 1   
    24    11    12 ar  
    25    11    14 ar  
    26    12    13 ar  
    27    12    39 1   
    28    13    22 ar  
    29    13    40 1   
    30    14    20 ar  
    31    14    23 1   
    32    15    16 1   
    33    15    29 1   
    34    15    43 1   
    35    15    44 1   
    36    16    32 1   
    37    16    45 1   
    38    16    46 1   
    39    17    29 1   
    40    17    30 1   
    41    17    47 1   
    42    17    48 1   
    43    19    49 1   
    44    20    22 ar  
    45    20    63 1   
    46    21    50 1   
    47    21    63 1   
    48    22    51 1   
    49    24    25 1   
    50    25    27 ar  
    51    26    52 1   
    52    26    53 1   
    53    26    54 1   
    54    27    28 ar  
    55    27    55 1   
    56    30    31 1   
    57    30    32 1   
    58    30    56 1   
    59    31    57 1   
    60    31    58 1   
    61    31    59 1   
    62    32    33 1   
    63    33    60 1   
    64    33    61 1   
    65    33    62 1   
    66    41    63 1   
    67    42    63 1   
@<TRIPOS>SUBSTRUCTURE
     1 3J5         1 TEMP              0 ****  ****    0 ROOT
