@<TRIPOS>MOLECULE
3J6
   41    44     1     0     0
SMALL
abcg2


@<TRIPOS>ATOM
      1 O           25.5010     4.4370    60.2640 o          1 3J6      -0.544100
      2 C           25.8380     1.6530    59.7810 c3         1 3J6      -0.040900
      3 C6          26.6470     4.0110    60.2700 c          1 3J6       0.561300
      4 C1          26.9650     2.5840    60.1060 ce         1 3J6      -0.162400
      5 C5          27.7980     5.0080    60.3400 c6         1 3J6       0.079300
      6 O1          27.2960     6.2640    60.7490 oh         1 3J6      -0.666000
      7 C4          28.9700     4.5020    61.2070 c6         1 3J6      -0.056000
      8 C14         28.5230     4.4220    62.6750 c3         1 3J6       0.164600
      9 O5          27.3460     3.6240    62.8270 oh         1 3J6      -0.671000
     10 C7          30.2600     5.4230    61.1350 c5         1 3J6      -0.014000
     11 C13         30.0910     6.8080    61.7580 c3         1 3J6      -0.083100
     12 C11         30.6910     5.4710    59.6690 cx         1 3J6       0.049000
     13 O2          31.5500     6.5400    59.2410 op         1 3J6      -0.446000
     14 C12         30.2440     6.3960    58.6400 cx         1 3J6       0.114600
     15 C10         31.2090     4.0770    59.4080 c5         1 3J6       0.194300
     16 C9          32.1640     3.8950    60.5960 c5         1 3J6       0.132300
     17 O4          32.3840     2.5130    60.8500 oh         1 3J6      -0.705000
     18 C8          31.4950     4.6860    61.7490 c5         1 3J6      -0.115400
     19 O3          30.1100     3.1700    59.4210 os         1 3J6      -0.441000
     20 C3          29.3620     3.1020    60.6570 c6         1 3J6       0.198500
     21 C2          28.2220     2.1900    60.3140 c2         1 3J6      -0.132200
     22 H1          25.0840     1.6760    60.5710 hc         1 3J6       0.049367
     23 H2          25.3400     1.9510    58.8560 hc         1 3J6       0.049367
     24 H3          26.2020     0.6310    59.6740 hc         1 3J6       0.049367
     25 H4          28.1520     5.0730    59.3030 h1         1 3J6       0.069700
     26 H5          26.3280     6.1880    60.6720 ho         1 3J6       0.471000
     27 H6          29.3270     4.0020    63.2830 h1         1 3J6       0.039700
     28 H7          28.3200     5.4310    63.0270 h1         1 3J6       0.039700
     29 H8          26.8260     3.9950    63.5490 ho         1 3J6       0.450000
     30 H9          29.9970     6.7390    62.8420 hc         1 3J6       0.051033
     31 H10         30.9800     7.3990    61.5420 hc         1 3J6       0.051033
     32 H11         29.2190     7.3280    61.3720 hc         1 3J6       0.051033
     33 H12         29.5400     7.1790    58.8980 h1         1 3J6       0.086200
     34 H13         30.2480     6.0840    57.6010 h1         1 3J6       0.086200
     35 H14         31.6890     3.9570    58.4390 h1         1 3J6       0.103700
     36 H15         33.1100     4.3730    60.3280 h1         1 3J6       0.052700
     37 H16         33.0590     2.4380    61.5350 ho         1 3J6       0.503000
     38 H17         31.2360     4.0200    62.5690 hc         1 3J6       0.057700
     39 H18         32.1850     5.4310    62.1450 hc         1 3J6       0.057700
     40 H19         29.9860     2.6060    61.4040 h1         1 3J6       0.071700
     41 H20         28.4850     1.1430    60.2040 ha         1 3J6       0.192000
@<TRIPOS>BOND
     1     1     3 2   
     2     2     4 1   
     3     2    22 1   
     4     2    23 1   
     5     2    24 1   
     6     3     4 1   
     7     3     5 1   
     8     4    21 2   
     9     5     6 1   
    10     5     7 1   
    11     5    25 1   
    12     6    26 1   
    13     7     8 1   
    14     7    10 1   
    15     7    20 1   
    16     8     9 1   
    17     8    27 1   
    18     8    28 1   
    19     9    29 1   
    20    10    11 1   
    21    10    12 1   
    22    10    18 1   
    23    11    30 1   
    24    11    31 1   
    25    11    32 1   
    26    12    13 1   
    27    12    14 1   
    28    12    15 1   
    29    13    14 1   
    30    14    33 1   
    31    14    34 1   
    32    15    16 1   
    33    15    19 1   
    34    15    35 1   
    35    16    17 1   
    36    16    18 1   
    37    16    36 1   
    38    17    37 1   
    39    18    38 1   
    40    18    39 1   
    41    19    20 1   
    42    20    21 1   
    43    20    40 1   
    44    21    41 1   
@<TRIPOS>SUBSTRUCTURE
     1 3J6         1 TEMP              0 ****  ****    0 ROOT
