@<TRIPOS>MOLECULE
3J6
   41    44     1     0     0
SMALL
No Charge or Current Charge


@<TRIPOS>ATOM
      1 O           25.3890     4.4890    60.0660 o          1 3J6      -0.544100
      2 C           25.7720     1.6670    59.6710 c3         1 3J6      -0.040900
      3 C6          26.5370     4.0740    60.2150 c          1 3J6       0.561300
      4 C1          26.8810     2.6190    60.1000 ce         1 3J6      -0.162400
      5 C5          27.7300     5.0760    60.3620 c6         1 3J6       0.079300
      6 O1          27.2330     6.3550    60.8350 oh         1 3J6      -0.666000
      7 C4          28.9510     4.5240    61.2170 c6         1 3J6      -0.056000
      8 C14         28.5010     4.4040    62.7340 c3         1 3J6       0.164600
      9 O5          27.4220     3.4900    62.9740 oh         1 3J6      -0.671000
     10 C7          30.2850     5.4320    61.1210 c5         1 3J6      -0.014000
     11 C13         30.1270     6.8670    61.7220 c3         1 3J6      -0.083100
     12 C11         30.8100     5.4560    59.6710 cx         1 3J6       0.049000
     13 O2          31.5040     6.5970    59.1190 op         1 3J6      -0.446000
     14 C12         30.1850     6.2820    58.5830 cx         1 3J6       0.114600
     15 C10         31.2730     4.0410    59.3740 c5         1 3J6       0.194300
     16 C9          32.2250     3.8720    60.6140 c5         1 3J6       0.132300
     17 O4          32.5020     2.5130    60.9840 oh         1 3J6      -0.705000
     18 C8          31.5540     4.7180    61.7610 c5         1 3J6      -0.115400
     19 O3          30.1200     3.1440    59.4500 os         1 3J6      -0.441000
     20 C3          29.3170     3.0900    60.6580 c6         1 3J6       0.198500
     21 C2          28.1390     2.1850    60.3360 c2         1 3J6      -0.132200
     22 H1          25.0140     1.5660    60.4560 hc         1 3J6       0.049367
     23 H2          25.2680     2.0240    58.7650 hc         1 3J6       0.049367
     24 H3          26.1550     0.6630    59.4530 hc         1 3J6       0.049367
     25 H4          28.0610     5.1720    59.3220 h1         1 3J6       0.069700
     26 H5          26.2700     6.3690    60.6230 ho         1 3J6       0.471000
     27 H6          29.3570     4.0980    63.3450 h1         1 3J6       0.039700
     28 H7          28.2070     5.3980    63.0920 h1         1 3J6       0.039700
     29 H8          27.2310     3.5150    63.9390 ho         1 3J6       0.450000
     30 H9          29.8210     6.8470    62.7730 hc         1 3J6       0.051033
     31 H10         31.0790     7.4110    61.6900 hc         1 3J6       0.051033
     32 H11         29.4150     7.4860    61.1700 hc         1 3J6       0.051033
     33 H12         29.4060     7.0040    58.8280 h1         1 3J6       0.086200
     34 H13         30.1760     5.8990    57.5620 h1         1 3J6       0.086200
     35 H14         31.7940     3.9210    58.4150 h1         1 3J6       0.103700
     36 H15         33.1770     4.3580    60.3560 h1         1 3J6       0.052700
     37 H16         33.1940     2.5390    61.6850 ho         1 3J6       0.503000
     38 H17         31.3180     4.1040    62.6340 hc         1 3J6       0.057700
     39 H18         32.2810     5.4540    62.1240 hc         1 3J6       0.057700
     40 H19         29.9110     2.5720    61.4240 h1         1 3J6       0.071700
     41 H20         28.3880     1.1270    60.2450 ha         1 3J6       0.192000
@<TRIPOS>BOND
     1     1     3 2   
     2     2     4 1   
     3     2    22 1   
     4     2    23 1   
     5     2    24 1   
     6     3     4 1   
     7     3     5 1   
     8     4    21 2   
     9     5     6 1   
    10     5     7 1   
    11     5    25 1   
    12     6    26 1   
    13     7     8 1   
    14     7    10 1   
    15     7    20 1   
    16     8     9 1   
    17     8    27 1   
    18     8    28 1   
    19     9    29 1   
    20    10    11 1   
    21    10    12 1   
    22    10    18 1   
    23    11    30 1   
    24    11    31 1   
    25    11    32 1   
    26    12    13 1   
    27    12    14 1   
    28    12    15 1   
    29    13    14 1   
    30    14    33 1   
    31    14    34 1   
    32    15    16 1   
    33    15    19 1   
    34    15    35 1   
    35    16    17 1   
    36    16    18 1   
    37    16    36 1   
    38    17    37 1   
    39    18    38 1   
    40    18    39 1   
    41    19    20 1   
    42    20    21 1   
    43    20    40 1   
    44    21    41 1   
@<TRIPOS>SUBSTRUCTURE
     1 3J6         1 TEMP              0 ****  ****    0 ROOT
