@<TRIPOS>MOLECULE
3J7
   44    47     1     0     0
SMALL
No Charge or Current Charge


@<TRIPOS>ATOM
      1 C1           3.0220    -3.7630    -0.3560 ca         1 3J7       0.301900
      2 C2           2.9920    -2.3660    -0.1930 ca         1 3J7      -0.116000
      3 C3           0.7070    -3.8840    -0.3780 ca         1 3J7       0.357900
      4 C11         -2.2120     1.5100     0.2400 ca         1 3J7      -0.029000
      5 C12         -4.6040     1.2930     0.2030 ca         1 3J7      -0.022200
      6 C13         -4.4940    -0.0480     0.0470 ca         1 3J7      -0.251900
      7 C14         -5.8440    -0.5480    -0.0180 cc         1 3J7       0.364800
      8 C15          2.7000     2.0010    -0.0530 c3         1 3J7       0.233800
      9 C16          4.1790     2.5290     0.0560 c3         1 3J7       0.155200
     10 C17          4.3160     3.8830    -0.6770 c3         1 3J7      -0.104100
     11 C18          4.5850     2.6910     1.5410 c3         1 3J7      -0.104100
     12 N1           1.9040    -4.5200    -0.4480 nb         1 3J7      -0.646000
     13 C4           0.5690    -2.4860    -0.2150 ca         1 3J7       0.011000
     14 C5           1.7440    -1.7070    -0.1210 ca         1 3J7      -0.163000
     15 C6           1.5930    -0.3140     0.0420 ca         1 3J7       0.417900
     16 N2           0.3780     0.2530     0.1030 nb         1 3J7      -0.305000
     17 C7          -0.7010    -0.5510     0.0070 cp         1 3J7       0.259500
     18 N3          -0.6420    -1.8920    -0.1500 nb         1 3J7      -0.218000
     19 C8          -2.0640     0.0910     0.0750 cp         1 3J7      -0.194500
     20 C9          -3.2540    -0.6960    -0.0230 ca         1 3J7       0.020000
     21 C10         -3.4840     2.1200     0.3060 ca         1 3J7      -0.155000
     22 N4          -6.7460     0.4420     0.0930 nd         1 3J7      -0.521100
     23 N5          -5.9490     1.5900     0.2320 na         1 3J7      -0.065400
     24 N6           2.6810     0.5430     0.1380 nu         1 3J7      -0.909100
     25 N7           5.1340     1.5700    -0.5640 n8         1 3J7      -1.018200
     26 H1           3.9720    -4.2930    -0.4140 h4         1 3J7       0.021100
     27 H2           3.9320    -1.8250    -0.1240 ha         1 3J7       0.120000
     28 H3          -0.1760    -4.5170    -0.4550 h4         1 3J7       0.037100
     29 H4          -1.3360     2.1490     0.3200 ha         1 3J7       0.132000
     30 H5          -6.2200    -1.5560    -0.1380 h4         1 3J7       0.051800
     31 H6           2.0610     2.5080     0.6840 h1         1 3J7       0.056700
     32 H7           2.3070     2.2360    -1.0520 h1         1 3J7       0.056700
     33 H8           3.6410     4.6290    -0.2390 hc         1 3J7       0.043367
     34 H9           5.3400     4.2720    -0.6040 hc         1 3J7       0.043367
     35 H10          4.0640     3.7840    -1.7400 hc         1 3J7       0.043367
     36 H11          4.5170     1.7360     2.0760 hc         1 3J7       0.043367
     37 H12          5.6140     3.0620     1.6330 hc         1 3J7       0.043367
     38 H13          3.9250     3.4060     2.0470 hc         1 3J7       0.043367
     39 H14         -3.2180    -1.7760    -0.1490 ha         1 3J7       0.143000
     40 H15         -3.5850     3.1950     0.4310 ha         1 3J7       0.119000
     41 H17          3.5990     0.1320    -0.0470 hn         1 3J7       0.523000
     42 H18          5.4590     1.9580    -1.4570 hn         1 3J7       0.403500
     43 H19          5.9880     1.5440     0.0040 hn         1 3J7       0.403500
     44 H191        -6.3590     2.5170     0.3380 hn         1 3J7       0.375000
@<TRIPOS>BOND
     1     1     2 ar  
     2     1    12 ar  
     3     1    26 1   
     4     2    14 ar  
     5     2    27 1   
     6     3    12 ar  
     7     3    13 ar  
     8     3    28 1   
     9     4    19 ar  
    10     4    21 ar  
    11     4    29 1   
    12     5     6 ar  
    13     5    21 ar  
    14     5    23 1   
    15     6     7 1   
    16     6    20 ar  
    17     7    22 2   
    18     7    30 1   
    19     8     9 1   
    20     8    24 1   
    21     8    31 1   
    22     8    32 1   
    23     9    10 1   
    24     9    11 1   
    25     9    25 1   
    26    10    33 1   
    27    10    34 1   
    28    10    35 1   
    29    11    36 1   
    30    11    37 1   
    31    11    38 1   
    32    13    14 ar  
    33    13    18 ar  
    34    14    15 ar  
    35    15    16 ar  
    36    15    24 1   
    37    16    17 ar  
    38    17    18 ar  
    39    17    19 1   
    40    19    20 ar  
    41    20    39 1   
    42    21    40 1   
    43    22    23 1   
    44    23    44 1   
    45    24    41 1   
    46    25    42 1   
    47    25    43 1   
@<TRIPOS>SUBSTRUCTURE
     1 3J7         1 TEMP              0 ****  ****    0 ROOT
