@<TRIPOS>MOLECULE
3J7
   44    47     1     0     0
SMALL
bcc


@<TRIPOS>ATOM
      1 C1           3.0030    -3.8180    -0.1690 ca         1 3J7       0.367200
      2 C2           3.0310    -2.4460    -0.1910 ca         1 3J7      -0.199300
      3 C3           0.7250    -3.8880    -0.0730 ca         1 3J7       0.357900
      4 C11         -2.0070     1.5000     0.0270 ca         1 3J7      -0.047000
      5 C12         -4.3670     1.4000     0.1160 ca         1 3J7      -0.022200
      6 C13         -4.3220    -0.0050     0.1030 ca         1 3J7      -0.251900
      7 C14         -5.6890    -0.3960     0.1530 cc         1 3J7       0.364800
      8 C15          2.6490     1.9290    -0.3000 c3         1 3J7       0.233800
      9 C16          4.0190     2.5290     0.0410 c3         1 3J7       0.155200
     10 C17          3.9620     4.0360    -0.2140 c3         1 3J7      -0.104100
     11 C18          4.3630     2.2670     1.5060 c3         1 3J7      -0.104100
     12 N1           1.8630    -4.5300    -0.1120 nb         1 3J7      -0.646000
     13 C4           0.6220    -2.4780    -0.0870 ca         1 3J7       0.339300
     14 C5           1.8170    -1.7480    -0.1520 ca         1 3J7      -0.293600
     15 C6           1.6600    -0.3110    -0.1690 ca         1 3J7       0.746200
     16 N2           0.4560     0.2210    -0.1130 nb         1 3J7      -0.831000
     17 C7          -0.6160    -0.5870    -0.0440 cp         1 3J7       0.785500
     18 N3          -0.5980    -1.8970    -0.0340 nb         1 3J7      -0.744000
     19 C8          -1.9330     0.0850     0.0140 cp         1 3J7      -0.194500
     20 C9          -3.0940    -0.6670     0.0530 ca         1 3J7       0.002000
     21 C10         -3.2020     2.1740     0.0780 ca         1 3J7      -0.173000
     22 N4          -6.4700     0.6520     0.1910 nd         1 3J7      -0.521100
     23 N5          -5.6760     1.7280     0.1680 na         1 3J7      -0.015100
     24 N6           2.7190     0.4890    -0.2300 nu         1 3J7      -0.853900
     25 N7           5.0100     1.8430    -0.7890 n8         1 3J7      -0.907800
     26 H1           3.9250    -4.3870    -0.1980 h4         1 3J7       0.021100
     27 H2           3.9860    -1.9400    -0.2370 ha         1 3J7       0.138000
     28 H3          -0.1880    -4.4740    -0.0250 h4         1 3J7       0.037100
     29 H4          -1.0860     2.0650    -0.0050 ha         1 3J7       0.150000
     30 H5          -6.1030    -1.3930     0.1620 h4         1 3J7       0.051800
     31 H6           1.8940     2.2980     0.3950 h1         1 3J7       0.056700
     32 H7           2.3400     2.2460    -1.3040 h1         1 3J7       0.056700
     33 H8           3.1940     4.5170     0.3950 hc         1 3J7       0.043367
     34 H9           4.9190     4.5010     0.0300 hc         1 3J7       0.043367
     35 H10          3.7410     4.2500    -1.2610 hc         1 3J7       0.043367
     36 H11          4.3830     1.2000     1.7340 hc         1 3J7       0.043367
     37 H12          5.3450     2.6770     1.7470 hc         1 3J7       0.043367
     38 H13          3.6370     2.7410     2.1670 hc         1 3J7       0.043367
     39 H14         -3.0460    -1.7480     0.0430 ha         1 3J7       0.161000
     40 H15         -3.2360     3.2560     0.0880 ha         1 3J7       0.137000
     41 H17          3.6390     0.1150    -0.4230 hn         1 3J7       0.467800
     42 H18          4.9040     2.1220    -1.7590 hn         1 3J7       0.348300
     43 H19          5.9440     2.1270    -0.5180 hn         1 3J7       0.348300
     44 H191        -6.0830     2.6480     0.1960 hn         1 3J7       0.324700
@<TRIPOS>BOND
     1     1     2 ar  
     2     1    12 ar  
     3     1    26 1   
     4     2    14 ar  
     5     2    27 1   
     6     3    12 ar  
     7     3    13 ar  
     8     3    28 1   
     9     4    19 ar  
    10     4    21 ar  
    11     4    29 1   
    12     5     6 ar  
    13     5    21 ar  
    14     5    23 1   
    15     6     7 1   
    16     6    20 ar  
    17     7    22 2   
    18     7    30 1   
    19     8     9 1   
    20     8    24 1   
    21     8    31 1   
    22     8    32 1   
    23     9    10 1   
    24     9    11 1   
    25     9    25 1   
    26    10    33 1   
    27    10    34 1   
    28    10    35 1   
    29    11    36 1   
    30    11    37 1   
    31    11    38 1   
    32    13    14 ar  
    33    13    18 ar  
    34    14    15 ar  
    35    15    16 ar  
    36    15    24 1   
    37    16    17 ar  
    38    17    18 ar  
    39    17    19 1   
    40    19    20 ar  
    41    20    39 1   
    42    21    40 1   
    43    22    23 1   
    44    23    44 1   
    45    24    41 1   
    46    25    42 1   
    47    25    43 1   
@<TRIPOS>SUBSTRUCTURE
     1 3J7         1 TEMP              0 ****  ****    0 ROOT
