@<TRIPOS>MOLECULE
3J9
   47    51     1     0     0
SMALL
No Charge or Current Charge


@<TRIPOS>ATOM
      1 C1          27.8080    14.7540     9.1780 ca         1 3J9      -0.059000
      2 C2          26.9760    15.8480     9.5110 cp         1 3J9      -0.076000
      3 C3          25.5790    15.7050     9.3230 ca         1 3J9      -0.031000
      4 C4          25.0060    14.5100     8.8240 ca         1 3J9      -0.147300
      5 C5          25.8760    13.4400     8.4930 ca         1 3J9       0.162100
      6 C6          27.2600    13.5640     8.6800 ca         1 3J9      -0.147000
      7 C7          27.5680    17.1220    10.0330 cp         1 3J9      -0.091000
      8 O8          25.4090    12.2430     7.9860 os         1 3J9      -0.350100
      9 C9          24.0800    12.1630     7.4360 c6         1 3J9       0.155000
     10 C10         23.0820    12.8910     8.3920 c6         1 3J9       0.150300
     11 C11         23.4780    14.3820     8.6550 c5         1 3J9       0.188500
     12 C12         23.0740    15.3920     7.5280 c5         1 3J9       0.138600
     13 O13         22.4950    16.4940     8.2450 os         1 3J9      -0.472600
     14 C14         22.1970    15.9740     9.4500 c2         1 3J9       0.789500
     15 N15         22.7260    14.8910     9.8400 n2         1 3J9      -0.710900
     16 N16         21.5330    16.8400    10.2180 nv         1 3J9      -1.010200
     17 O17         21.7190    12.7470     7.9030 os         1 3J9      -0.448000
     18 C18         21.2530    11.3800     7.8760 c6         1 3J9       0.153600
     19 C19         22.1570    10.5210     6.9560 c6         1 3J9      -0.109400
     20 C20         23.6520    10.6690     7.3540 c6         1 3J9      -0.071400
     21 C21         24.1640    12.7790     6.0000 c3         1 3J9      -0.107100
     22 C22         27.0040    17.8520    11.1180 ca         1 3J9       0.567200
     23 N23         27.5100    19.0020    11.6190 nb         1 3J9      -0.700000
     24 C24         28.6310    19.4880    11.0440 ca         1 3J9       0.361900
     25 C25         29.2760    18.8510     9.9720 ca         1 3J9      -0.177000
     26 C26         28.7470    17.6560     9.4590 ca         1 3J9      -0.057000
     27 F27         25.9020    17.4130    11.7660 f          1 3J9      -0.229200
     28 H1          28.8840    14.8260     9.3170 ha         1 3J9       0.115000
     29 H2          24.9340    16.5450     9.5610 ha         1 3J9       0.124000
     30 H3          27.9120    12.7320     8.4290 ha         1 3J9       0.130000
     31 H4          23.1420    12.3780     9.3640 h1         1 3J9       0.074700
     32 H5          22.3090    14.9750     6.8590 h1         1 3J9       0.073200
     33 H6          23.9180    15.7410     6.9180 h1         1 3J9       0.073200
     34 H7          21.6430    17.7850     9.8790 hn         1 3J9       0.487500
     35 H8          21.7520    16.7130    11.1970 hn         1 3J9       0.487500
     36 H9          20.2160    11.3610     7.5110 h1         1 3J9       0.053700
     37 H10         21.2600    10.9760     8.8990 h1         1 3J9       0.053700
     38 H11         22.0080    10.8220     5.9100 hc         1 3J9       0.053700
     39 H12         21.8540     9.4670     7.0190 hc         1 3J9       0.053700
     40 H13         23.8140    10.1900     8.3300 hc         1 3J9       0.059700
     41 H14         24.2860    10.1250     6.6400 hc         1 3J9       0.059700
     42 H15         24.6840    13.7430     5.9890 hc         1 3J9       0.049033
     43 H16         24.7180    12.1190     5.3220 hc         1 3J9       0.049033
     44 H17         23.1700    12.9330     5.5650 hc         1 3J9       0.049033
     45 H18         29.0260    20.4160    11.4560 h4         1 3J9       0.028100
     46 H19         30.1770    19.2850     9.5470 ha         1 3J9       0.130000
     47 H20         29.2340    17.1580     8.6240 ha         1 3J9       0.124000
@<TRIPOS>BOND
     1     1     2 ar  
     2     1     6 ar  
     3     1    28 1   
     4     2     3 ar  
     5     2     7 1   
     6     3     4 ar  
     7     3    29 1   
     8     4     5 ar  
     9     4    11 1   
    10     5     6 ar  
    11     5     8 1   
    12     6    30 1   
    13     7    22 ar  
    14     7    26 ar  
    15     8     9 1   
    16     9    10 1   
    17     9    20 1   
    18     9    21 1   
    19    10    11 1   
    20    10    17 1   
    21    10    31 1   
    22    11    12 1   
    23    11    15 1   
    24    12    13 1   
    25    12    32 1   
    26    12    33 1   
    27    13    14 1   
    28    14    15 2   
    29    14    16 1   
    30    16    34 1   
    31    16    35 1   
    32    17    18 1   
    33    18    19 1   
    34    18    36 1   
    35    18    37 1   
    36    19    20 1   
    37    19    38 1   
    38    19    39 1   
    39    20    40 1   
    40    20    41 1   
    41    21    42 1   
    42    21    43 1   
    43    21    44 1   
    44    22    23 ar  
    45    22    27 1   
    46    23    24 ar  
    47    24    25 ar  
    48    24    45 1   
    49    25    26 ar  
    50    25    46 1   
    51    26    47 1   
@<TRIPOS>SUBSTRUCTURE
     1 3J9         1 TEMP              0 ****  ****    0 ROOT
