@<TRIPOS>MOLECULE
3J9
   47    51     1     0     0
SMALL
abcg2


@<TRIPOS>ATOM
      1 C1          27.8060    14.7040     9.1980 ca         1 3J9      -0.059000
      2 C2          26.9910    15.8100     9.4800 cp         1 3J9      -0.076000
      3 C3          25.6200    15.6820     9.2660 ca         1 3J9      -0.031000
      4 C4          25.0480    14.5100     8.7800 ca         1 3J9      -0.147300
      5 C5          25.8870    13.4300     8.4890 ca         1 3J9       0.162100
      6 C6          27.2620    13.5330     8.7070 ca         1 3J9      -0.147000
      7 C7          27.5910    17.0680     9.9670 cp         1 3J9      -0.091000
      8 O8          25.4330    12.2360     8.0180 os         1 3J9      -0.350100
      9 C9          24.1120    12.2310     7.4190 c6         1 3J9       0.155000
     10 C10         23.1650    12.9620     8.3830 c6         1 3J9       0.150300
     11 C11         23.5370    14.4280     8.6110 c5         1 3J9       0.188500
     12 C12         23.0040    15.3900     7.5020 c5         1 3J9       0.138600
     13 O13         22.0960    16.2780     8.1970 os         1 3J9      -0.472600
     14 C14         22.1120    15.8900     9.4950 c2         1 3J9       0.789500
     15 N15         22.8620    14.9100     9.8300 n2         1 3J9      -0.710900
     16 N16         21.2680    16.5840    10.2990 nv         1 3J9      -1.010200
     17 O17         21.8230    12.8710     7.9440 os         1 3J9      -0.448000
     18 C18         21.3560    11.5170     7.9250 c6         1 3J9       0.153600
     19 C19         22.1970    10.6530     6.9970 c6         1 3J9      -0.109400
     20 C20         23.6810    10.7670     7.3560 c6         1 3J9      -0.071400
     21 C21         24.2100    12.8550     6.0300 c3         1 3J9      -0.107100
     22 C22         27.0010    17.8950    10.9310 ca         1 3J9       0.567200
     23 N23         27.4870    19.0090    11.4050 nb         1 3J9      -0.700000
     24 C24         28.6730    19.4230    10.9350 ca         1 3J9       0.361900
     25 C25         29.3780    18.7040     9.9850 ca         1 3J9      -0.177000
     26 C26         28.8270    17.5240     9.5020 ca         1 3J9      -0.057000
     27 F27         25.8130    17.5280    11.4670 f          1 3J9      -0.229200
     28 H1          28.8720    14.7590     9.3740 ha         1 3J9       0.115000
     29 H2          24.9670    16.5150     9.4810 ha         1 3J9       0.124000
     30 H3          27.8890    12.6780     8.4890 ha         1 3J9       0.130000
     31 H4          23.2620    12.4630     9.3570 h1         1 3J9       0.074700
     32 H5          22.4390    14.8790     6.7300 h1         1 3J9       0.073200
     33 H6          23.7930    15.9930     7.0570 h1         1 3J9       0.073200
     34 H7          21.0020    17.5060     9.9890 hn         1 3J9       0.487500
     35 H8          21.4220    16.4870    11.2900 hn         1 3J9       0.487500
     36 H9          20.3180    11.5630     7.5980 h1         1 3J9       0.053700
     37 H10         21.3850    11.1170     8.9470 h1         1 3J9       0.053700
     38 H11         22.0300    10.9620     5.9630 hc         1 3J9       0.053700
     39 H12         21.8720     9.6140     7.0810 hc         1 3J9       0.053700
     40 H13         23.8540    10.3250     8.3410 hc         1 3J9       0.059700
     41 H14         24.3020    10.2300     6.6370 hc         1 3J9       0.059700
     42 H15         24.6570    13.8480     6.0670 hc         1 3J9       0.049033
     43 H16         24.8370    12.2250     5.3980 hc         1 3J9       0.049033
     44 H17         23.2270    12.9390     5.5690 hc         1 3J9       0.049033
     45 H18         29.0560    20.3520    11.3400 h4         1 3J9       0.028100
     46 H19         30.3320    19.0620     9.6230 ha         1 3J9       0.130000
     47 H20         29.3490    16.9520     8.7460 ha         1 3J9       0.124000
@<TRIPOS>BOND
     1     1     2 ar  
     2     1     6 ar  
     3     1    28 1   
     4     2     3 ar  
     5     2     7 1   
     6     3     4 ar  
     7     3    29 1   
     8     4     5 ar  
     9     4    11 1   
    10     5     6 ar  
    11     5     8 1   
    12     6    30 1   
    13     7    22 ar  
    14     7    26 ar  
    15     8     9 1   
    16     9    10 1   
    17     9    20 1   
    18     9    21 1   
    19    10    11 1   
    20    10    17 1   
    21    10    31 1   
    22    11    12 1   
    23    11    15 1   
    24    12    13 1   
    25    12    32 1   
    26    12    33 1   
    27    13    14 1   
    28    14    15 2   
    29    14    16 1   
    30    16    34 1   
    31    16    35 1   
    32    17    18 1   
    33    18    19 1   
    34    18    36 1   
    35    18    37 1   
    36    19    20 1   
    37    19    38 1   
    38    19    39 1   
    39    20    40 1   
    40    20    41 1   
    41    21    42 1   
    42    21    43 1   
    43    21    44 1   
    44    22    23 ar  
    45    22    27 1   
    46    23    24 ar  
    47    24    25 ar  
    48    24    45 1   
    49    25    26 ar  
    50    25    46 1   
    51    26    47 1   
@<TRIPOS>SUBSTRUCTURE
     1 3J9         1 TEMP              0 ****  ****    0 ROOT
