@<TRIPOS>MOLECULE
3JA
   37    40     1     0     0
SMALL
bcc


@<TRIPOS>ATOM
      1 N3           2.2380     2.7650     0.2770 na         1 3JA      -0.262100
      2 C4          -1.8650     0.7170    -0.9040 cc         1 3JA       0.326200
      3 N2          -3.1680     0.7980    -0.7060 nd         1 3JA      -0.530800
      4 C7           2.5600     1.4850    -0.0120 ca         1 3JA       0.458800
      5 C6           0.8790     2.8790     0.3600 cd         1 3JA      -0.122100
      6 C9           1.5570    -0.6430    -0.3030 ca         1 3JA       0.733200
      7 C13         -0.4840    -3.6470    -0.9380 c6         1 3JA       0.121400
      8 C8           1.3690     0.7350    -0.0580 ca         1 3JA      -0.337400
      9 N5           3.7880     1.0340    -0.2640 nb         1 3JA      -0.741000
     10 N1          -3.3160     1.5700     0.3640 na         1 3JA       0.110400
     11 C2          -2.1390     1.9850     0.8620 cd         1 3JA      -0.139300
     12 C3          -1.1490     1.4500     0.0610 cc         1 3JA      -0.209100
     13 C5           0.2890     1.6610     0.1550 cc         1 3JA      -0.006400
     14 N4           2.7740    -1.0820    -0.6160 nb         1 3JA      -0.811000
     15 C10          3.8040    -0.2380    -0.5960 ca         1 3JA       0.693900
     16 N6           0.5410    -1.5640    -0.2480 nh         1 3JA      -0.747300
     17 C11         -0.2790    -1.6040     0.9610 c6         1 3JA       0.163800
     18 C12         -1.5370    -2.4140     0.7180 c6         1 3JA       0.121400
     19 O1          -1.2390    -3.7110     0.2510 os         1 3JA      -0.401600
     20 C14          0.8240    -2.9040    -0.7390 c6         1 3JA       0.163800
     21 H1           2.8950     3.5250     0.3550 hn         1 3JA       0.313700
     22 H2          -1.4670     0.1370    -1.7240 h4         1 3JA       0.049100
     23 H3           0.4160     3.8380     0.5290 h4         1 3JA       0.168000
     24 H4          -0.2780    -4.6710    -1.2510 h1         1 3JA       0.054700
     25 H5          -1.0630    -3.1590    -1.7360 h1         1 3JA       0.054700
     26 H6          -5.1200     0.9530     1.2230 h1         1 3JA       0.056367
     27 H7          -4.5460     2.5570     1.7030 h1         1 3JA       0.056367
     28 H8          -5.2450     2.3170     0.0960 h1         1 3JA       0.056367
     29 H9          -2.0770     2.6140     1.7360 h4         1 3JA       0.170000
     30 H10          4.7660    -0.6610    -0.8630 h5         1 3JA       0.046100
     31 H11          0.2960    -2.0560     1.7820 h1         1 3JA       0.058950
     32 H12         -0.5610    -0.6010     1.2730 h1         1 3JA       0.058950
     33 H13         -2.0840    -2.5190     1.6560 h1         1 3JA       0.054700
     34 H14         -2.1820    -1.8860     0.0040 h1         1 3JA       0.054700
     35 H15          1.4700    -3.4590    -0.0460 h1         1 3JA       0.058950
     36 H16          1.3440    -2.8460    -1.6940 h1         1 3JA       0.058950
     37 C1          -4.6340     1.8620     0.8730 c3         1 3JA       0.044600
@<TRIPOS>BOND
     1     1     4 1   
     2     1     5 1   
     3     1    21 1   
     4     2     3 2   
     5     2    12 1   
     6     2    22 1   
     7     3    10 1   
     8     4     8 ar  
     9     4     9 ar  
    10     5    13 2   
    11     5    23 1   
    12     6     8 ar  
    13     6    14 ar  
    14     6    16 1   
    15     7    19 1   
    16     7    20 1   
    17     7    24 1   
    18     7    25 1   
    19     8    13 1   
    20     9    15 ar  
    21    10    11 1   
    22    10    37 1   
    23    11    12 2   
    24    11    29 1   
    25    12    13 1   
    26    14    15 ar  
    27    15    30 1   
    28    16    17 1   
    29    16    20 1   
    30    17    18 1   
    31    17    31 1   
    32    17    32 1   
    33    18    19 1   
    34    18    33 1   
    35    18    34 1   
    36    20    35 1   
    37    20    36 1   
    38    26    37 1   
    39    27    37 1   
    40    28    37 1   
@<TRIPOS>SUBSTRUCTURE
     1 3JA         1 TEMP              0 ****  ****    0 ROOT
