@<TRIPOS>MOLECULE
3JA
   37    40     1     0     0
SMALL
No Charge or Current Charge


@<TRIPOS>ATOM
      1 N3           2.1490     2.8440     0.4820 na         1 3JA      -0.312400
      2 C4          -1.8640     0.3350    -0.5240 cc         1 3JA       0.260900
      3 N2          -3.1760     0.4560    -0.4690 nd         1 3JA      -0.530800
      4 C7           2.5260     1.5840     0.0540 ca         1 3JA       0.130500
      5 C6           0.7440     2.8390     0.6150 cd         1 3JA      -0.172100
      6 C9           1.5940    -0.5920    -0.3650 ca         1 3JA       0.404900
      7 C13         -0.7030    -3.6000    -1.0820 c6         1 3JA       0.144600
      8 C8           1.4120     0.7800    -0.0700 ca         1 3JA      -0.206800
      9 N5           3.7650     1.1220    -0.1920 nb         1 3JA      -0.215000
     10 N1          -3.3390     1.6480     0.2230 na         1 3JA       0.131800
     11 C2          -2.1220     2.2470     0.5650 cd         1 3JA      -0.172000
     12 C3          -1.1700     1.3830     0.1060 cc         1 3JA      -0.143800
     13 C5           0.2530     1.6050     0.2130 cc         1 3JA      -0.006400
     14 N4           2.8360    -1.0610    -0.6200 nb         1 3JA      -0.285000
     15 C10          3.8530    -0.1780    -0.5440 ca         1 3JA       0.167900
     16 N6           0.5840    -1.5700    -0.2530 nh         1 3JA      -0.747300
     17 C11          0.0310    -1.8450     1.1140 c6         1 3JA       0.163800
     18 C12         -1.2590    -2.7220     1.0860 c6         1 3JA       0.144600
     19 O1          -1.0580    -3.9090     0.2850 os         1 3JA      -0.448000
     20 C14          0.6240    -2.7870    -1.1310 c6         1 3JA       0.163800
     21 H1           2.7770     3.6210     0.6690 hn         1 3JA       0.364000
     22 H2          -1.4620    -0.5000    -1.0750 h4         1 3JA       0.049100
     23 H3           0.1980     3.7290     0.9150 h4         1 3JA       0.218000
     24 H4          -0.5880    -4.5360    -1.6450 h1         1 3JA       0.054700
     25 H5          -1.5140    -3.0210    -1.5450 h1         1 3JA       0.054700
     26 H6          -5.2630     1.4180     1.0510 h1         1 3JA       0.056367
     27 H7          -4.6000     3.0780     1.1260 h1         1 3JA       0.056367
     28 H8          -5.1860     2.4200    -0.4310 h1         1 3JA       0.056367
     29 H9          -2.0540     3.1900     1.0940 h4         1 3JA       0.152000
     30 H10          4.8510    -0.5610    -0.7510 h5         1 3JA       0.046100
     31 H11          0.7890    -2.3620     1.7210 h1         1 3JA       0.058950
     32 H12         -0.2030    -0.9020     1.6300 h1         1 3JA       0.058950
     33 H13         -1.5280    -3.0180     2.1090 h1         1 3JA       0.054700
     34 H14         -2.0980    -2.1460     0.6710 h1         1 3JA       0.054700
     35 H15          1.4470    -3.4490    -0.8230 h1         1 3JA       0.058950
     36 H16          0.8130    -2.4950    -2.1750 h1         1 3JA       0.058950
     37 C1          -4.6810     2.1740     0.5100 c3         1 3JA       0.073900
@<TRIPOS>BOND
     1     1     4 1   
     2     1     5 1   
     3     1    21 1   
     4     2     3 2   
     5     2    12 1   
     6     2    22 1   
     7     3    10 1   
     8     4     8 ar  
     9     4     9 ar  
    10     5    13 2   
    11     5    23 1   
    12     6     8 ar  
    13     6    14 ar  
    14     6    16 1   
    15     7    19 1   
    16     7    20 1   
    17     7    24 1   
    18     7    25 1   
    19     8    13 1   
    20     9    15 ar  
    21    10    11 1   
    22    10    37 1   
    23    11    12 2   
    24    11    29 1   
    25    12    13 1   
    26    14    15 ar  
    27    15    30 1   
    28    16    17 1   
    29    16    20 1   
    30    17    18 1   
    31    17    31 1   
    32    17    32 1   
    33    18    19 1   
    34    18    33 1   
    35    18    34 1   
    36    20    35 1   
    37    20    36 1   
    38    26    37 1   
    39    27    37 1   
    40    28    37 1   
@<TRIPOS>SUBSTRUCTURE
     1 3JA         1 TEMP              0 ****  ****    0 ROOT
