@<TRIPOS>MOLECULE
3JB
   46    50     1     0     0
SMALL
No Charge or Current Charge


@<TRIPOS>ATOM
      1 N3           3.9530     0.6960    -1.9710 na         1 3JB      -0.312400
      2 C4           0.0830     2.4560     2.3340 c6         1 3JB       0.169800
      3 N2           0.5290     1.7460     1.0890 nh         1 3JB      -0.766300
      4 C7           1.2470    -1.1910     1.3160 ca         1 3JB      -0.070000
      5 C6           3.2340    -0.4980    -1.7660 cc         1 3JB      -0.150100
      6 C9          -0.1010    -3.2100     1.1440 ca         1 3JB      -0.074000
      7 C8           0.4470    -2.1760     1.9190 ca         1 3JB      -0.124000
      8 N5          -3.0220    -1.0090    -0.3980 nc         1 3JB      -0.735000
      9 C16         -2.8780     0.2840     0.0290 cc         1 3JB       0.545300
     10 C02          1.7600     2.0740     0.4770 ca         1 3JB       0.410900
     11 N            2.1520     3.3630     0.5830 nb         1 3JB      -0.276000
     12 C04          3.2170     3.7450    -0.1570 ca         1 3JB       0.167900
     13 N1           3.9050     2.9830    -1.0360 nb         1 3JB      -0.209000
     14 C2          -0.6120     1.3480     0.2000 c6         1 3JB       0.177800
     15 C03         -1.7480     0.6300     0.9850 c6         1 3JB       0.137000
     16 O           -2.1680     1.4510     2.1120 os         1 3JB      -0.434000
     17 C05         -1.0890     1.7130     3.0410 c6         1 3JB       0.148600
     18 C1           3.5140     1.7000    -1.1270 ca         1 3JB       0.134500
     19 C3           2.4940     1.1930    -0.3530 ca         1 3JB      -0.211800
     20 C5           2.3920    -0.2220    -0.7010 cd         1 3JB      -0.064400
     21 C01          1.5150    -1.2280    -0.0680 ca         1 3JB      -0.024800
     22 C10          0.1760    -3.2740    -0.2350 ca         1 3JB      -0.018000
     23 C06          0.9980    -2.2970    -0.8300 ca         1 3JB      -0.053000
     24 C11         -0.3800    -4.3310    -1.0330 cg         1 3JB       0.340000
     25 N02         -0.8240    -5.1900    -1.6890 n1         1 3JB      -0.473000
     26 N4          -3.7530     1.1540    -0.4560 nd         1 3JB      -0.334300
     27 O1          -4.5650     0.3510    -1.2880 os         1 3JB      -0.093700
     28 C14         -4.0610    -0.9090    -1.1940 cd         1 3JB       0.496300
     29 C           -4.6720    -2.0470    -1.9510 c3         1 3JB      -0.137400
     30 H1           4.6900     0.8220    -2.6580 hn         1 3JB       0.367000
     31 H2           0.9180     2.5410     3.0440 h1         1 3JB       0.064200
     32 H3          -0.2460     3.4770     2.0900 h1         1 3JB       0.064200
     33 H4           1.6880    -0.4150     1.9350 ha         1 3JB       0.127000
     34 H5           3.4260    -1.4160    -2.3150 h4         1 3JB       0.224000
     35 H6          -0.7300    -3.9630     1.6150 ha         1 3JB       0.127000
     36 H7           0.2500    -2.1350     2.9880 ha         1 3JB       0.122000
     37 H8           3.5270     4.7850    -0.0660 h5         1 3JB       0.049100
     38 H9          -1.0280     2.2410    -0.2890 h1         1 3JB       0.070200
     39 H10         -0.2660     0.6800    -0.6020 h1         1 3JB       0.070200
     40 H11         -1.3470    -0.3070     1.3890 h1         1 3JB       0.072700
     41 H12         -0.7300     0.7600     3.4550 h1         1 3JB       0.057200
     42 H13         -1.4690     2.3230     3.8720 h1         1 3JB       0.057200
     43 H14          1.2080    -2.3520    -1.8960 ha         1 3JB       0.130000
     44 H15         -5.1910    -1.6870    -2.8460 hc         1 3JB       0.077367
     45 H16         -3.9050    -2.7620    -2.2680 hc         1 3JB       0.077367
     46 H17         -5.3970    -2.5790    -1.3260 hc         1 3JB       0.077367
@<TRIPOS>BOND
     1     1     5 1   
     2     1    18 1   
     3     1    30 1   
     4     2     3 1   
     5     2    17 1   
     6     2    31 1   
     7     2    32 1   
     8     3    10 1   
     9     3    14 1   
    10     4     7 ar  
    11     4    21 ar  
    12     4    33 1   
    13     5    20 2   
    14     5    34 1   
    15     6     7 ar  
    16     6    22 ar  
    17     6    35 1   
    18     7    36 1   
    19     8     9 1   
    20     8    28 2   
    21     9    15 1   
    22     9    26 2   
    23    10    11 ar  
    24    10    19 ar  
    25    11    12 ar  
    26    12    13 ar  
    27    12    37 1   
    28    13    18 ar  
    29    14    15 1   
    30    14    38 1   
    31    14    39 1   
    32    15    16 1   
    33    15    40 1   
    34    16    17 1   
    35    17    41 1   
    36    17    42 1   
    37    18    19 ar  
    38    19    20 1   
    39    20    21 1   
    40    21    23 ar  
    41    22    23 ar  
    42    22    24 1   
    43    23    43 1   
    44    24    25 3   
    45    26    27 1   
    46    27    28 1   
    47    28    29 1   
    48    29    44 1   
    49    29    45 1   
    50    29    46 1   
@<TRIPOS>SUBSTRUCTURE
     1 3JB         1 TEMP              0 ****  ****    0 ROOT
