@<TRIPOS>MOLECULE
3JB
   46    50     1     0     0
SMALL
abcg2


@<TRIPOS>ATOM
      1 N3           3.9490     0.6360    -1.8380 na         1 3JB      -0.312400
      2 C4          -0.0830     2.6900     2.0060 c6         1 3JB       0.169800
      3 N2           0.4420     1.8020     0.9850 nh         1 3JB      -0.766300
      4 C7           1.4540    -1.4110     1.3610 ca         1 3JB      -0.070000
      5 C6           3.2510    -0.5110    -1.5820 cc         1 3JB      -0.150100
      6 C9          -0.1660    -3.1850     1.2850 ca         1 3JB      -0.074000
      7 C8           0.6830    -2.3630     2.0090 ca         1 3JB      -0.124000
      8 N5          -2.5580    -0.7280    -0.8800 nc         1 3JB      -0.735000
      9 C16         -2.7400    -0.0540     0.2900 cc         1 3JB       0.545300
     10 C02          1.6350     2.0940     0.3790 ca         1 3JB       0.410900
     11 N            2.1490     3.3110     0.5240 nb         1 3JB      -0.276000
     12 C04          3.2520     3.6320    -0.1530 ca         1 3JB       0.167900
     13 N1           3.9140     2.8860    -1.0120 nb         1 3JB      -0.209000
     14 C2          -0.6230     1.2400     0.1680 c6         1 3JB       0.177800
     15 C03         -1.5950     0.4930     1.0730 c6         1 3JB       0.137000
     16 O           -2.1000     1.3330     2.0750 os         1 3JB      -0.434000
     17 C05         -1.0630     1.8980     2.8540 c6         1 3JB       0.148600
     18 C1           3.4350     1.6460    -1.0980 ca         1 3JB       0.134500
     19 C3           2.3350     1.1420    -0.3870 ca         1 3JB      -0.211800
     20 C5           2.2520    -0.2600    -0.6820 cd         1 3JB      -0.064400
     21 C01          1.4110    -1.2710    -0.0290 ca         1 3JB      -0.024800
     22 C10         -0.2220    -3.0400    -0.1000 ca         1 3JB      -0.018000
     23 C06          0.5650    -2.0970    -0.7570 ca         1 3JB      -0.053000
     24 C11         -1.1290    -3.8420    -0.8570 cg         1 3JB       0.340000
     25 N02         -1.8650    -4.4870    -1.4660 n1         1 3JB      -0.473000
     26 N4          -3.9770     0.0380     0.6600 nd         1 3JB      -0.334300
     27 O1          -4.6570    -0.6220    -0.3300 os         1 3JB      -0.093700
     28 C14         -3.7640    -1.0520    -1.2120 cd         1 3JB       0.496300
     29 C           -4.2200    -1.8170    -2.3910 c3         1 3JB      -0.137400
     30 H1           4.7610     0.7030    -2.4310 hn         1 3JB       0.367000
     31 H2           0.7280     3.0490     2.6380 h1         1 3JB       0.064200
     32 H3          -0.5790     3.5650     1.5670 h1         1 3JB       0.064200
     33 H4           2.1090    -0.7710     1.9390 ha         1 3JB       0.127000
     34 H5           3.5440    -1.4470    -2.0310 h4         1 3JB       0.224000
     35 H6          -0.7820    -3.9210     1.7840 ha         1 3JB       0.127000
     36 H7           0.7370    -2.4610     3.0850 ha         1 3JB       0.122000
     37 H8           3.6270     4.6370     0.0080 h5         1 3JB       0.049100
     38 H9          -1.1530     2.0440    -0.3610 h1         1 3JB       0.070200
     39 H10         -0.2230     0.5670    -0.5830 h1         1 3JB       0.070200
     40 H11         -1.0560    -0.3590     1.5150 h1         1 3JB       0.072700
     41 H12         -0.5220     1.1110     3.3970 h1         1 3JB       0.057200
     42 H13         -1.5370     2.5510     3.5870 h1         1 3JB       0.057200
     43 H14          0.4930    -1.9880    -1.8310 ha         1 3JB       0.130000
     44 H15         -5.2900    -1.7060    -2.5500 hc         1 3JB       0.077367
     45 H16         -3.6890    -1.4780    -3.2770 hc         1 3JB       0.077367
     46 H17         -3.9940    -2.8750    -2.2550 hc         1 3JB       0.077367
@<TRIPOS>BOND
     1     1     5 1   
     2     1    18 1   
     3     1    30 1   
     4     2     3 1   
     5     2    17 1   
     6     2    31 1   
     7     2    32 1   
     8     3    10 1   
     9     3    14 1   
    10     4     7 ar  
    11     4    21 ar  
    12     4    33 1   
    13     5    20 2   
    14     5    34 1   
    15     6     7 ar  
    16     6    22 ar  
    17     6    35 1   
    18     7    36 1   
    19     8     9 1   
    20     8    28 2   
    21     9    15 1   
    22     9    26 2   
    23    10    11 ar  
    24    10    19 ar  
    25    11    12 ar  
    26    12    13 ar  
    27    12    37 1   
    28    13    18 ar  
    29    14    15 1   
    30    14    38 1   
    31    14    39 1   
    32    15    16 1   
    33    15    40 1   
    34    16    17 1   
    35    17    41 1   
    36    17    42 1   
    37    18    19 ar  
    38    19    20 1   
    39    20    21 1   
    40    21    23 ar  
    41    22    23 ar  
    42    22    24 1   
    43    23    43 1   
    44    24    25 3   
    45    26    27 1   
    46    27    28 1   
    47    28    29 1   
    48    29    44 1   
    49    29    45 1   
    50    29    46 1   
@<TRIPOS>SUBSTRUCTURE
     1 3JB         1 TEMP              0 ****  ****    0 ROOT
