@<TRIPOS>MOLECULE
3JC
   34    36     1     0     0
SMALL
No Charge or Current Charge


@<TRIPOS>ATOM
      1 C1           3.1010    -0.7780     0.0230 ca         1 3JC       0.237300
      2 C2           1.6900    -0.6420     0.0280 ca         1 3JC      -0.359600
      3 C3           1.1790     0.6730    -0.0220 ca         1 3JC       0.213300
      4 C11         -4.5920     0.5280     1.2890 ca         1 3JC      -0.108500
      5 C12         -5.4460     0.5870     0.1750 ca         1 3JC      -0.107000
      6 C13         -4.9290     0.3840    -1.1150 ca         1 3JC      -0.108500
      7 C14         -3.5590     0.1210    -1.2910 ca         1 3JC      -0.103000
      8 C15          3.8340    -2.1100     0.1020 c3         1 3JC      -0.155400
      9 N1           3.9020     0.3050    -0.0310 nb         1 3JC      -0.281000
     10 N2           1.9880     1.7470    -0.0730 nb         1 3JC      -0.276000
     11 C4           3.2990     1.4960    -0.0790 ca         1 3JC       0.420900
     12 C5           0.7350    -1.8050     0.0720 c          1 3JC       0.607700
     13 C6          -0.7260    -1.4780     0.3910 c6         1 3JC      -0.175400
     14 C7          -1.1990    -0.2290    -0.3860 c6         1 3JC      -0.005400
     15 C8          -2.6940     0.0580    -0.1790 ca         1 3JC      -0.080300
     16 C9          -0.3180     0.9820    -0.0010 c6         1 3JC      -0.140700
     17 C10         -3.2230     0.2650     1.1130 ca         1 3JC      -0.103000
     18 H1          -4.9910     0.6860     2.2880 ha         1 3JC       0.113500
     19 H2          -6.5060     0.7910     0.3110 ha         1 3JC       0.114000
     20 H3          -5.5880     0.4310    -1.9780 ha         1 3JC       0.113500
     21 H4          -3.1720    -0.0330    -2.2960 ha         1 3JC       0.111000
     22 H5           3.6720    -2.7010    -0.8070 hc         1 3JC       0.065700
     23 H6           4.9170    -1.9750     0.2130 hc         1 3JC       0.065700
     24 H7           3.4920    -2.6980     0.9610 hc         1 3JC       0.065700
     25 H8           5.0950     2.4430     0.1060 hn         1 3JC       0.508500
     26 H9           3.7170     3.4880     0.0750 hn         1 3JC       0.508500
     27 H10         -1.3600    -2.3560     0.2160 hc         1 3JC       0.073700
     28 H11         -0.7550    -1.2200     1.4570 hc         1 3JC       0.073700
     29 H12         -1.0320    -0.4320    -1.4540 hc         1 3JC       0.061700
     30 H13         -0.5830     1.3340     1.0050 hc         1 3JC       0.073700
     31 H14         -0.5370     1.8180    -0.6810 hc         1 3JC       0.073700
     32 H15         -2.5750     0.2250     1.9860 ha         1 3JC       0.111000
     33 O1           1.0650    -2.9520    -0.1910 o          1 3JC      -0.543100
     34 N3           4.1140     2.5740    -0.1290 nv         1 3JC      -1.065900
@<TRIPOS>BOND
     1     1     2 ar  
     2     1     8 1   
     3     1     9 ar  
     4     2     3 ar  
     5     2    12 1   
     6     3    10 ar  
     7     3    16 1   
     8     4     5 ar  
     9     4    17 ar  
    10     4    18 1   
    11     5     6 ar  
    12     5    19 1   
    13     6     7 ar  
    14     6    20 1   
    15     7    15 ar  
    16     7    21 1   
    17     8    22 1   
    18     8    23 1   
    19     8    24 1   
    20     9    11 ar  
    21    10    11 ar  
    22    11    34 1   
    23    12    13 1   
    24    12    33 2   
    25    13    14 1   
    26    13    27 1   
    27    13    28 1   
    28    14    15 1   
    29    14    16 1   
    30    14    29 1   
    31    15    17 ar  
    32    16    30 1   
    33    16    31 1   
    34    17    32 1   
    35    25    34 1   
    36    26    34 1   
@<TRIPOS>SUBSTRUCTURE
     1 3JC         1 TEMP              0 ****  ****    0 ROOT
