@<TRIPOS>MOLECULE
3JC
   34    36     1     0     0
SMALL
abcg2


@<TRIPOS>ATOM
      1 C1           3.0520    -0.7770     0.0020 ca         1 3JC       0.237300
      2 C2           1.6470    -0.6420     0.1100 ca         1 3JC      -0.359600
      3 C3           1.1560     0.6760     0.1120 ca         1 3JC       0.213300
      4 C11         -4.5740     0.5740     1.1990 ca         1 3JC      -0.108500
      5 C12         -5.3900     0.5630     0.0740 ca         1 3JC      -0.107000
      6 C13         -4.8310     0.3180    -1.1720 ca         1 3JC      -0.108500
      7 C14         -3.4670     0.0840    -1.2900 ca         1 3JC      -0.103000
      8 C15          3.7640    -2.0910    -0.0390 c3         1 3JC      -0.155400
      9 N1           3.8340     0.2820    -0.0720 nb         1 3JC      -0.281000
     10 N2           1.9450     1.7290     0.0330 nb         1 3JC      -0.276000
     11 C4           3.2590     1.4930    -0.0460 ca         1 3JC       0.420900
     12 C5           0.7260    -1.7780     0.2220 c          1 3JC       0.607700
     13 C6          -0.7440    -1.4660     0.3840 c6         1 3JC      -0.175400
     14 C7          -1.1620    -0.1760    -0.3160 c6         1 3JC      -0.005400
     15 C8          -2.6390     0.0910    -0.1700 ca         1 3JC      -0.080300
     16 C9          -0.3090     0.9660     0.2210 c6         1 3JC      -0.140700
     17 C10         -3.2120     0.3390     1.0770 ca         1 3JC      -0.103000
     18 H1          -4.9990     0.7650     2.1760 ha         1 3JC       0.113500
     19 H2          -6.4530     0.7430     0.1710 ha         1 3JC       0.114000
     20 H3          -5.4580     0.3080    -2.0550 ha         1 3JC       0.113500
     21 H4          -3.0400    -0.1080    -2.2670 ha         1 3JC       0.111000
     22 H5           3.4380    -2.6920    -0.8860 hc         1 3JC       0.065700
     23 H6           4.8330    -1.9130    -0.1230 hc         1 3JC       0.065700
     24 H7           3.5710    -2.6800     0.8560 hc         1 3JC       0.065700
     25 H8           5.0650     2.4240    -0.1660 hn         1 3JC       0.508500
     26 H9           3.6980     3.4820    -0.0910 hn         1 3JC       0.508500
     27 H10         -1.3200    -2.3200     0.0240 hc         1 3JC       0.073700
     28 H11         -0.9400    -1.3810     1.4600 hc         1 3JC       0.073700
     29 H12         -0.9490    -0.2860    -1.3840 hc         1 3JC       0.061700
     30 H13         -0.5370     1.1370     1.2800 hc         1 3JC       0.073700
     31 H14         -0.5240     1.9010    -0.2970 hc         1 3JC       0.073700
     32 H15         -2.5950     0.3510     1.9680 ha         1 3JC       0.111000
     33 O1           1.0990    -2.9380     0.2150 o          1 3JC      -0.543100
     34 N3           4.0700     2.5490    -0.1120 nv         1 3JC      -1.065900
@<TRIPOS>BOND
     1     1     2 ar  
     2     1     8 1   
     3     1     9 ar  
     4     2     3 ar  
     5     2    12 1   
     6     3    10 ar  
     7     3    16 1   
     8     4     5 ar  
     9     4    17 ar  
    10     4    18 1   
    11     5     6 ar  
    12     5    19 1   
    13     6     7 ar  
    14     6    20 1   
    15     7    15 ar  
    16     7    21 1   
    17     8    22 1   
    18     8    23 1   
    19     8    24 1   
    20     9    11 ar  
    21    10    11 ar  
    22    11    34 1   
    23    12    13 1   
    24    12    33 2   
    25    13    14 1   
    26    13    27 1   
    27    13    28 1   
    28    14    15 1   
    29    14    16 1   
    30    14    29 1   
    31    15    17 ar  
    32    16    30 1   
    33    16    31 1   
    34    17    32 1   
    35    25    34 1   
    36    26    34 1   
@<TRIPOS>SUBSTRUCTURE
     1 3JC         1 TEMP              0 ****  ****    0 ROOT
