@<TRIPOS>MOLECULE
3JD
   44    47     1     0     0
SMALL
abcg2


@<TRIPOS>ATOM
      1 CAM         -4.9140    -0.7960     1.1830 c6         1 3JD      -0.069400
      2 CAK         -6.4330    -0.9360     1.1890 c6         1 3JD      -0.114400
      3 CAL         -6.9580    -1.1300    -0.2300 c6         1 3JD       0.148800
      4 NAP         -6.5300    -0.0930    -1.1560 n7         1 3JD      -0.846400
      5 CAN         -5.0890     0.0740    -1.1670 c6         1 3JD       0.156800
      6 CAW         -4.4720     0.3150     0.2220 c6         1 3JD      -0.057400
      7 CAR         -2.9760     0.4430     0.1420 ca         1 3JD      -0.063300
      8 CAF         -2.1790    -0.6250    -0.2750 ca         1 3JD      -0.099000
      9 CAH         -0.8020    -0.5070    -0.3650 ca         1 3JD      -0.098000
     10 CAE         -2.3410     1.6370     0.4710 ca         1 3JD      -0.099000
     11 CAG         -0.9630     1.7700     0.3990 ca         1 3JD      -0.098000
     12 CAS         -0.1950     0.6960    -0.0290 ca         1 3JD      -0.007200
     13 NAX          1.2100     0.8230    -0.1240 na         1 3JD       0.249700
     14 CAJ          1.8890     1.9470    -0.4000 cc         1 3JD      -0.186100
     15 NAO          1.9770    -0.2510     0.0560 nc         1 3JD      -0.248400
     16 CAV          3.2200     0.1950    -0.1090 ca         1 3JD      -0.039000
     17 CAU          3.2300     1.5900    -0.3970 ca         1 3JD      -0.157000
     18 CAI          4.4390     2.2860    -0.6030 ca         1 3JD      -0.030000
     19 CAC          5.6050     1.5810    -0.5000 ca         1 3JD      -0.147000
     20 CAD          5.6020     0.1950    -0.1900 ca         1 3JD      -0.067000
     21 CAT          4.4460    -0.5170     0.0080 ca         1 3JD      -0.120600
     22 CAQ          4.4560    -1.9840     0.2750 c          1 3JD       0.621700
     23 OAB          3.6070    -2.7250    -0.1970 o          1 3JD      -0.582100
     24 NAA          5.4680    -2.4220     1.0430 nt         1 3JD      -0.610000
     25 H1          -4.5410    -0.5870     2.1880 hc         1 3JD       0.046700
     26 H2          -4.4650    -1.7460     0.8730 hc         1 3JD       0.046700
     27 H3          -6.7330    -1.7770     1.8190 hc         1 3JD       0.044700
     28 H4          -6.8870    -0.0390     1.6240 hc         1 3JD       0.044700
     29 H5          -6.6060    -2.0940    -0.6150 h1         1 3JD       0.053200
     30 H6          -8.0490    -1.1720    -0.2350 h1         1 3JD       0.053200
     31 H7          -6.9650     0.7840    -0.8940 hn         1 3JD       0.403000
     32 H9          -4.6450    -0.8280    -1.6050 h1         1 3JD       0.056200
     33 H10         -4.8370     0.9020    -1.8340 h1         1 3JD       0.056200
     34 H11         -4.8710     1.2640     0.5990 hc         1 3JD       0.049700
     35 H12         -2.6330    -1.5710    -0.5410 ha         1 3JD       0.120000
     36 H13         -0.2050    -1.3450    -0.6990 ha         1 3JD       0.137500
     37 H14         -2.9290     2.4810     0.8100 ha         1 3JD       0.120000
     38 H15         -0.5000     2.7010     0.6970 ha         1 3JD       0.137500
     39 H16          1.4010     2.8860    -0.6020 h4         1 3JD       0.230000
     40 H17          4.4420     3.3430    -0.8340 ha         1 3JD       0.116000
     41 H18          6.5540     2.0750    -0.6560 ha         1 3JD       0.114000
     42 H19          6.5580    -0.3100    -0.1350 ha         1 3JD       0.111000
     43 H20          6.0620    -1.7900     1.5510 hn         1 3JD       0.311000
     44 H21          5.5350    -3.4000     1.2720 hn         1 3JD       0.311000
@<TRIPOS>BOND
     1     1     2 1   
     2     1     6 1   
     3     1    25 1   
     4     1    26 1   
     5     2     3 1   
     6     2    27 1   
     7     2    28 1   
     8     3     4 1   
     9     3    29 1   
    10     3    30 1   
    11     4     5 1   
    12     4    31 1   
    13     5     6 1   
    14     5    32 1   
    15     5    33 1   
    16     6     7 1   
    17     6    34 1   
    18     7     8 ar  
    19     7    10 ar  
    20     8     9 ar  
    21     8    35 1   
    22     9    12 ar  
    23     9    36 1   
    24    10    11 ar  
    25    10    37 1   
    26    11    12 ar  
    27    11    38 1   
    28    12    13 1   
    29    13    14 1   
    30    13    15 1   
    31    14    17 2   
    32    14    39 1   
    33    15    16 2   
    34    16    17 ar  
    35    16    21 ar  
    36    17    18 ar  
    37    18    19 ar  
    38    18    40 1   
    39    19    20 ar  
    40    19    41 1   
    41    20    21 ar  
    42    20    42 1   
    43    21    22 1   
    44    22    23 2   
    45    22    24 1   
    46    24    43 1   
    47    24    44 1   
@<TRIPOS>SUBSTRUCTURE
     1 3JD         1 TEMP              0 ****  ****    0 ROOT
