@<TRIPOS>MOLECULE
3JD
   44    47     1     0     0
SMALL
No Charge or Current Charge


@<TRIPOS>ATOM
      1 CAM         -4.9960    -0.8200     1.1330 c6         1 3JD      -0.069400
      2 CAK         -6.5410    -0.9170     1.1780 c6         1 3JD      -0.114400
      3 CAL         -7.1320    -1.0570    -0.2450 c6         1 3JD       0.148800
      4 NAP         -6.6840     0.0580    -1.1150 n7         1 3JD      -0.846400
      5 CAN         -5.2030     0.1430    -1.2170 c6         1 3JD       0.156800
      6 CAW         -4.5450     0.3210     0.1810 c6         1 3JD      -0.057400
      7 CAR         -3.0150     0.4170     0.0870 ca         1 3JD      -0.063300
      8 CAF         -2.2560    -0.6380    -0.4600 ca         1 3JD      -0.099000
      9 CAH         -0.8560    -0.5430    -0.5410 ca         1 3JD      -0.098000
     10 CAE         -2.3490     1.5670     0.5540 ca         1 3JD      -0.099000
     11 CAG         -0.9490     1.6640     0.4730 ca         1 3JD      -0.098000
     12 CAS         -0.1900     0.6100    -0.0770 ca         1 3JD      -0.007200
     13 NAX          1.2040     0.7060    -0.1600 na         1 3JD       0.249700
     14 CAJ          1.8900     1.8490    -0.5250 cc         1 3JD      -0.186100
     15 NAO          2.0160    -0.3650     0.1980 nc         1 3JD      -0.248400
     16 CAV          3.3000     0.1740     0.0160 ca         1 3JD      -0.039000
     17 CAU          3.2620     1.4890    -0.4130 ca         1 3JD      -0.157000
     18 CAI          4.4040     2.2520    -0.6640 ca         1 3JD      -0.030000
     19 CAC          5.6500     1.6350    -0.4670 ca         1 3JD      -0.147000
     20 CAD          5.7230     0.2940    -0.0290 ca         1 3JD      -0.067000
     21 CAT          4.5470    -0.4710     0.2240 ca         1 3JD      -0.120600
     22 CAQ          4.6430    -1.9160     0.6950 c          1 3JD       0.621700
     23 OAB          3.6780    -2.6280     0.9220 o          1 3JD      -0.582100
     24 NAA          5.8760    -2.4450     0.8740 nt         1 3JD      -0.610000
     25 H1          -4.6010    -0.6440     2.1440 hc         1 3JD       0.046700
     26 H2          -4.5810    -1.7800     0.7980 hc         1 3JD       0.046700
     27 H3          -6.8430    -1.7770     1.7920 hc         1 3JD       0.044700
     28 H4          -6.9560    -0.0240     1.6660 hc         1 3JD       0.044700
     29 H5          -6.8140    -2.0160    -0.6820 h1         1 3JD       0.053200
     30 H6          -8.2310    -1.0670    -0.1900 h1         1 3JD       0.053200
     31 H7          -7.0280     0.9370    -0.7100 hn         1 3JD       0.403000
     32 H9          -4.8190    -0.7700    -1.6970 h1         1 3JD       0.056200
     33 H10         -4.9270     0.9920    -1.8610 h1         1 3JD       0.056200
     34 H11         -4.9220     1.2650     0.5990 hc         1 3JD       0.049700
     35 H12         -2.7480    -1.5370    -0.8240 ha         1 3JD       0.120000
     36 H13         -0.2900    -1.3670    -0.9700 ha         1 3JD       0.137500
     37 H14         -2.9150     2.3900     0.9850 ha         1 3JD       0.120000
     38 H15         -0.4570     2.5580     0.8490 ha         1 3JD       0.137500
     39 H16          1.3760     2.7530    -0.8280 h4         1 3JD       0.230000
     40 H17          4.3330     3.2840    -1.0010 ha         1 3JD       0.116000
     41 H18          6.5640     2.1950    -0.6520 ha         1 3JD       0.114000
     42 H19          6.7100    -0.1380     0.1090 ha         1 3JD       0.111000
     43 H20          6.6980    -1.8900     0.6980 hn         1 3JD       0.311000
     44 H21          5.9590    -3.4010     1.1850 hn         1 3JD       0.311000
@<TRIPOS>BOND
     1     1     2 1   
     2     1     6 1   
     3     1    25 1   
     4     1    26 1   
     5     2     3 1   
     6     2    27 1   
     7     2    28 1   
     8     3     4 1   
     9     3    29 1   
    10     3    30 1   
    11     4     5 1   
    12     4    31 1   
    13     5     6 1   
    14     5    32 1   
    15     5    33 1   
    16     6     7 1   
    17     6    34 1   
    18     7     8 ar  
    19     7    10 ar  
    20     8     9 ar  
    21     8    35 1   
    22     9    12 ar  
    23     9    36 1   
    24    10    11 ar  
    25    10    37 1   
    26    11    12 ar  
    27    11    38 1   
    28    12    13 1   
    29    13    14 1   
    30    13    15 1   
    31    14    17 2   
    32    14    39 1   
    33    15    16 2   
    34    16    17 ar  
    35    16    21 ar  
    36    17    18 ar  
    37    18    19 ar  
    38    18    40 1   
    39    19    20 ar  
    40    19    41 1   
    41    20    21 ar  
    42    20    42 1   
    43    21    22 1   
    44    22    23 2   
    45    22    24 1   
    46    24    43 1   
    47    24    44 1   
@<TRIPOS>SUBSTRUCTURE
     1 3JD         1 TEMP              0 ****  ****    0 ROOT
