@<TRIPOS>MOLECULE
3JE
   47    50     1     0     0
SMALL
No Charge or Current Charge


@<TRIPOS>ATOM
      1 C27          4.3240     1.1060    -0.3290 ca         1 3JE      -0.052000
      2 C26          5.7260     1.0560    -0.2250 ca         1 3JE      -0.110500
      3 C25          6.3510    -0.0630     0.3540 ca         1 3JE      -0.053000
      4 C24          5.5730    -1.1330     0.8290 ca         1 3JE      -0.110500
      5 C23          4.1710    -1.0860     0.7260 ca         1 3JE      -0.052000
      6 C22          3.5430     0.0340     0.1470 ca         1 3JE      -0.087000
      7 C21          2.1140     0.0830     0.0420 cg         1 3JE       0.214000
      8 C20          0.9060     0.1150    -0.0410 c1         1 3JE      -0.597500
      9 P7          -0.8810     0.0440    -0.0830 p5         1 3JE       1.462000
     10 C6          -1.3400     0.1430    -1.8620 ca         1 3JE      -0.430500
     11 C5          -2.2320     1.1390    -2.3220 ca         1 3JE      -0.031000
     12 C4          -2.5740     1.2020    -3.6830 ca         1 3JE      -0.110500
     13 C3          -2.0320     0.2780    -4.5930 ca         1 3JE      -0.034667
     14 C2          -1.1460    -0.7130    -4.1400 ca         1 3JE      -0.110500
     15 C1          -0.7990    -0.7840    -2.7810 ca         1 3JE      -0.031000
     16 C14         -1.3270    -1.5660     0.6870 ca         1 3JE      -0.430500
     17 C19         -0.8600    -1.8790     1.9830 ca         1 3JE      -0.031000
     18 C18         -1.1960    -3.1080     2.5760 ca         1 3JE      -0.110500
     19 C17         -1.9990    -4.0300     1.8850 ca         1 3JE      -0.034667
     20 C16         -2.4670    -3.7230     0.5960 ca         1 3JE      -0.110500
     21 C15         -2.1350    -2.4970    -0.0050 ca         1 3JE      -0.031000
     22 C8          -1.4580     1.4930     0.8920 ca         1 3JE      -0.430500
     23 C13         -2.3360     1.3220     1.9870 ca         1 3JE      -0.031000
     24 C12         -2.7690     2.4390     2.7220 ca         1 3JE      -0.110500
     25 C11         -2.3320     3.7280     2.3750 ca         1 3JE      -0.034667
     26 C10         -1.4600     3.9020     1.2880 ca         1 3JE      -0.110500
     27 C9          -1.0220     2.7920     0.5470 ca         1 3JE      -0.031000
     28 H1           3.8480     1.9750    -0.7780 ha         1 3JE       0.125000
     29 H2           6.3270     1.8840    -0.5930 ha         1 3JE       0.135500
     30 H3           7.4360    -0.1000     0.4340 ha         1 3JE       0.135000
     31 H4           6.0560    -1.9990     1.2770 ha         1 3JE       0.135500
     32 H5           3.5760    -1.9190     1.0970 ha         1 3JE       0.125000
     33 H6          -2.6680     1.8620    -1.6330 ha         1 3JE       0.124333
     34 H7          -3.2610     1.9680    -4.0340 ha         1 3JE       0.136333
     35 H8          -2.3000     0.3300    -5.6460 ha         1 3JE       0.136333
     36 H9          -0.7270    -1.4280    -4.8450 ha         1 3JE       0.136333
     37 H10         -0.1080    -1.5590    -2.4480 ha         1 3JE       0.124333
     38 H11         -0.2350    -1.1760     2.5350 ha         1 3JE       0.124333
     39 H12         -0.8340    -3.3450     3.5740 ha         1 3JE       0.136333
     40 H13         -2.2580    -4.9810     2.3460 ha         1 3JE       0.136333
     41 H14         -3.0890    -4.4380     0.0620 ha         1 3JE       0.136333
     42 H15         -2.5130    -2.2790    -1.0030 ha         1 3JE       0.124333
     43 H16         -2.6920     0.3320     2.2710 ha         1 3JE       0.124333
     44 H17         -3.4450     2.3040     3.5630 ha         1 3JE       0.136333
     45 H18         -2.6690     4.5900     2.9470 ha         1 3JE       0.136333
     46 H19         -1.1220     4.9010     1.0190 ha         1 3JE       0.136333
     47 H20         -0.3440     2.9470    -0.2930 ha         1 3JE       0.124333
@<TRIPOS>BOND
     1     1     2 ar  
     2     1     6 ar  
     3     1    28 1   
     4     2     3 ar  
     5     2    29 1   
     6     3     4 ar  
     7     3    30 1   
     8     4     5 ar  
     9     4    31 1   
    10     5     6 ar  
    11     5    32 1   
    12     6     7 1   
    13     7     8 3   
    14     8     9 1   
    15     9    10 1   
    16     9    16 1   
    17     9    22 1   
    18    10    11 ar  
    19    10    15 ar  
    20    11    12 ar  
    21    11    33 1   
    22    12    13 ar  
    23    12    34 1   
    24    13    14 ar  
    25    13    35 1   
    26    14    15 ar  
    27    14    36 1   
    28    15    37 1   
    29    16    17 ar  
    30    16    21 ar  
    31    17    18 ar  
    32    17    38 1   
    33    18    19 ar  
    34    18    39 1   
    35    19    20 ar  
    36    19    40 1   
    37    20    21 ar  
    38    20    41 1   
    39    21    42 1   
    40    22    23 ar  
    41    22    27 ar  
    42    23    24 ar  
    43    23    43 1   
    44    24    25 ar  
    45    24    44 1   
    46    25    26 ar  
    47    25    45 1   
    48    26    27 ar  
    49    26    46 1   
    50    27    47 1   
@<TRIPOS>SUBSTRUCTURE
     1 3JE         1 TEMP              0 ****  ****    0 ROOT
