@<TRIPOS>MOLECULE
3JE
   47    50     1     0     0
SMALL
bcc


@<TRIPOS>ATOM
      1 C27          4.3320     1.1210    -0.3610 ca         1 3JE      -0.070000
      2 C26          5.7140     1.1190    -0.2990 ca         1 3JE      -0.128500
      3 C25          6.3870     0.0300     0.2430 ca         1 3JE      -0.071000
      4 C24          5.6780    -1.0630     0.7270 ca         1 3JE      -0.128500
      5 C23          4.2950    -1.0740     0.6710 ca         1 3JE      -0.070000
      6 C22          3.6180     0.0210     0.1250 ca         1 3JE      -0.087000
      7 C21          2.2030     0.0170     0.0660 cg         1 3JE       0.214000
      8 C20          0.9950     0.0180     0.0130 c1         1 3JE      -0.597500
      9 P7          -0.7260     0.0130    -0.0470 p5         1 3JE       1.462000
     10 C6          -1.2450     0.1170    -1.7570 ca         1 3JE      -0.430500
     11 C5          -2.3760     0.8570    -2.0910 ca         1 3JE      -0.049000
     12 C4          -2.8040     0.8810    -3.4100 ca         1 3JE      -0.128500
     13 C3          -2.1080     0.1730    -4.3800 ca         1 3JE      -0.052667
     14 C2          -0.9790    -0.5630    -4.0410 ca         1 3JE      -0.128500
     15 C1          -0.5420    -0.5960    -2.7270 ca         1 3JE      -0.049000
     16 C14         -1.3120    -1.5120     0.6870 ca         1 3JE      -0.430500
     17 C19         -0.8500    -1.8690     1.9540 ca         1 3JE      -0.049000
     18 C18         -1.3140    -3.0330     2.5420 ca         1 3JE      -0.128500
     19 C17         -2.2330    -3.8320     1.8700 ca         1 3JE      -0.052667
     20 C16         -2.6900    -3.4720     0.6110 ca         1 3JE      -0.128500
     21 C15         -2.2310    -2.3080     0.0110 ca         1 3JE      -0.049000
     22 C8          -1.3440     1.4150     0.8770 ca         1 3JE      -0.430500
     23 C13         -2.4920     1.2830     1.6540 ca         1 3JE      -0.049000
     24 C12         -2.9870     2.3910     2.3260 ca         1 3JE      -0.128500
     25 C11         -2.3400     3.6140     2.2210 ca         1 3JE      -0.052667
     26 C10         -1.1960     3.7410     1.4410 ca         1 3JE      -0.128500
     27 C9          -0.6930     2.6430     0.7640 ca         1 3JE      -0.049000
     28 H1           3.8030     1.9640    -0.7840 ha         1 3JE       0.143000
     29 H2           6.2670     1.9680    -0.6750 ha         1 3JE       0.153500
     30 H3           7.4680     0.0340     0.2880 ha         1 3JE       0.153000
     31 H4           6.2030    -1.9090     1.1480 ha         1 3JE       0.153500
     32 H5           3.7380    -1.9210     1.0470 ha         1 3JE       0.143000
     33 H6          -2.9200     1.4180    -1.3420 ha         1 3JE       0.142333
     34 H7          -3.6810     1.4550    -3.6770 ha         1 3JE       0.154333
     35 H8          -2.4450     0.1980    -5.4080 ha         1 3JE       0.154333
     36 H9          -0.4380    -1.1110    -4.7990 ha         1 3JE       0.154333
     37 H10          0.3400    -1.1670    -2.4670 ha         1 3JE       0.142333
     38 H11         -0.1360    -1.2480     2.4810 ha         1 3JE       0.142333
     39 H12         -0.9580    -3.3160     3.5220 ha         1 3JE       0.154333
     40 H13         -2.5930    -4.7420     2.3330 ha         1 3JE       0.154333
     41 H14         -3.4030    -4.0960     0.0900 ha         1 3JE       0.154333
     42 H15         -2.5890    -2.0370    -0.9730 ha         1 3JE       0.142333
     43 H16         -2.9980     0.3300     1.7440 ha         1 3JE       0.142333
     44 H17         -3.8760     2.2950     2.9340 ha         1 3JE       0.154333
     45 H18         -2.7260     4.4730     2.7520 ha         1 3JE       0.154333
     46 H19         -0.6940     4.6960     1.3610 ha         1 3JE       0.154333
     47 H20          0.1990     2.7460     0.1590 ha         1 3JE       0.142333
@<TRIPOS>BOND
     1     1     2 ar  
     2     1     6 ar  
     3     1    28 1   
     4     2     3 ar  
     5     2    29 1   
     6     3     4 ar  
     7     3    30 1   
     8     4     5 ar  
     9     4    31 1   
    10     5     6 ar  
    11     5    32 1   
    12     6     7 1   
    13     7     8 3   
    14     8     9 1   
    15     9    10 1   
    16     9    16 1   
    17     9    22 1   
    18    10    11 ar  
    19    10    15 ar  
    20    11    12 ar  
    21    11    33 1   
    22    12    13 ar  
    23    12    34 1   
    24    13    14 ar  
    25    13    35 1   
    26    14    15 ar  
    27    14    36 1   
    28    15    37 1   
    29    16    17 ar  
    30    16    21 ar  
    31    17    18 ar  
    32    17    38 1   
    33    18    19 ar  
    34    18    39 1   
    35    19    20 ar  
    36    19    40 1   
    37    20    21 ar  
    38    20    41 1   
    39    21    42 1   
    40    22    23 ar  
    41    22    27 ar  
    42    23    24 ar  
    43    23    43 1   
    44    24    25 ar  
    45    24    44 1   
    46    25    26 ar  
    47    25    45 1   
    48    26    27 ar  
    49    26    46 1   
    50    27    47 1   
@<TRIPOS>SUBSTRUCTURE
     1 3JE         1 TEMP              0 ****  ****    0 ROOT
