@<TRIPOS>MOLECULE
3JF
   65    67     1     0     0
SMALL
No Charge or Current Charge


@<TRIPOS>ATOM
      1 CAA         -8.4890     0.8050     1.2240 c3         1 3JF      -0.179100
      2 CAV         -7.4480     0.0520     0.4070 c          1 3JF       0.605100
      3 OAF         -7.6980    -0.9960    -0.1700 o          1 3JF      -0.618100
      4 NAT         -6.2060     0.6410     0.3760 ns         1 3JF      -0.498900
      5 CBE         -5.0210     0.1170    -0.3520 c3         1 3JF       0.047700
      6 CBG         -4.8010     0.8660    -1.7250 c3         1 3JF      -0.047000
      7 CAD         -4.4590     2.3650    -1.4910 c3         1 3JF      -0.089433
      8 CAE         -3.6470     0.2210    -2.5400 c3         1 3JF      -0.089433
      9 CAC         -6.0870     0.7850    -2.5960 c3         1 3JF      -0.089433
     10 CAX         -3.7830     0.1690     0.6110 c          1 3JF       0.606100
     11 OAH         -3.6950     1.0290     1.4840 o          1 3JF      -0.616100
     12 N           -2.7360    -0.7670     0.4460 n          1 3JF      -0.389800
     13 CD2         -2.9590    -2.1440    -0.0640 c5         1 3JF       0.069000
     14 CG          -1.7480    -2.9450     0.5100 c5         1 3JF       0.153300
     15 OD1         -2.0210    -3.4950     1.8040 oh         1 3JF      -0.653000
     16 CB          -0.6600    -1.8460     0.5870 c5         1 3JF      -0.083400
     17 CA          -1.4480    -0.6420     1.1830 c5         1 3JF       0.031700
     18 C           -0.6420     0.6650     0.9050 c          1 3JF       0.606100
     19 O           -0.7810     1.4440    -0.0310 o          1 3JF      -0.605100
     20 NAS          0.2950     0.8410     1.9010 ns         1 3JF      -0.494900
     21 CAO          1.2740     1.9260     1.9320 c3         1 3JF       0.147300
     22 CAY          2.5770     1.5040     1.2680 ca         1 3JF      -0.108300
     23 CAK          2.7670     1.7020    -0.1120 ca         1 3JF      -0.097500
     24 CAM          3.9660     1.3020    -0.7270 ca         1 3JF      -0.100000
     25 CAJ          3.6000     0.9050     2.0260 ca         1 3JF      -0.097500
     26 CAL          4.7990     0.5060     1.4090 ca         1 3JF      -0.100000
     27 CBA          4.9860     0.6920     0.0260 ca         1 3JF      -0.003000
     28 CBB          6.2290     0.2900    -0.6270 cc         1 3JF      -0.185000
     29 SAU          7.1760     1.3070    -1.6680 ss         1 3JF      -0.027400
     30 CAN          8.2450    -0.0570    -1.8770 cc         1 3JF       0.413300
     31 NAR          7.9050    -1.1840    -1.2560 nd         1 3JF      -0.637000
     32 CAZ          6.7310    -0.9940    -0.5410 cd         1 3JF       0.300300
     33 CAB          6.1390    -2.1600     0.2070 c3         1 3JF      -0.121400
     34 H1          -9.4640     0.3060     1.2290 hc         1 3JF       0.061367
     35 H2          -8.1050     0.9560     2.2390 hc         1 3JF       0.061367
     36 H3          -8.5620     1.8320     0.8470 hc         1 3JF       0.061367
     37 H4          -6.0920     1.4890     0.9200 hn         1 3JF       0.330500
     38 H5          -5.2080    -0.9390    -0.5750 h1         1 3JF       0.085700
     39 H6          -3.5210     2.4790    -0.9340 hc         1 3JF       0.040144
     40 H7          -4.3410     2.8910    -2.4460 hc         1 3JF       0.040144
     41 H8          -5.2520     2.8730    -0.9290 hc         1 3JF       0.040144
     42 H9          -3.8560    -0.8350    -2.7460 hc         1 3JF       0.040144
     43 H10         -3.5240     0.7250    -3.5070 hc         1 3JF       0.040144
     44 H11         -2.6890     0.2930    -2.0150 hc         1 3JF       0.040144
     45 H12         -6.9230     1.3230    -2.1330 hc         1 3JF       0.040144
     46 H13         -5.9220     1.2330    -3.5840 hc         1 3JF       0.040144
     47 H14         -6.3930    -0.2570    -2.7470 hc         1 3JF       0.040144
     48 H15         -3.9170    -2.5640     0.2710 h1         1 3JF       0.061200
     49 H16         -2.9420    -2.1620    -1.1610 h1         1 3JF       0.061200
     50 H17         -1.4470    -3.7490    -0.1770 h1         1 3JF       0.053700
     51 H18         -2.6520    -4.2380     1.6750 ho         1 3JF       0.449000
     52 H19          0.1960    -2.1400     1.2040 hc         1 3JF       0.072200
     53 H20         -0.2740    -1.6150    -0.4140 hc         1 3JF       0.072200
     54 H21         -1.6090    -0.7510     2.2640 h1         1 3JF       0.079700
     55 H22          0.3330     0.1390     2.6300 hn         1 3JF       0.316500
     56 H23          0.8650     2.8120     1.4270 h1         1 3JF       0.067200
     57 H24          1.4630     2.2010     2.9780 h1         1 3JF       0.067200
     58 H25          1.9840     2.1620    -0.7110 ha         1 3JF       0.121500
     59 H26          4.0990     1.4590    -1.7950 ha         1 3JF       0.119500
     60 H27          3.4690     0.7490     3.0950 ha         1 3JF       0.121500
     61 H28          5.5860     0.0580     2.0120 ha         1 3JF       0.119500
     62 H29          9.1220     0.0570    -2.5010 h5         1 3JF       0.053100
     63 H30          6.4380    -2.1410     1.2610 hc         1 3JF       0.051367
     64 H31          5.0440    -2.1460     0.1620 hc         1 3JF       0.051367
     65 H32          6.4720    -3.1150    -0.2170 hc         1 3JF       0.051367
@<TRIPOS>BOND
     1     1     2 1   
     2     1    34 1   
     3     1    35 1   
     4     1    36 1   
     5     2     3 2   
     6     2     4 1   
     7     4     5 1   
     8     4    37 1   
     9     5     6 1   
    10     5    10 1   
    11     5    38 1   
    12     6     7 1   
    13     6     8 1   
    14     6     9 1   
    15     7    39 1   
    16     7    40 1   
    17     7    41 1   
    18     8    42 1   
    19     8    43 1   
    20     8    44 1   
    21     9    45 1   
    22     9    46 1   
    23     9    47 1   
    24    10    11 2   
    25    10    12 1   
    26    12    13 1   
    27    12    17 1   
    28    13    14 1   
    29    13    48 1   
    30    13    49 1   
    31    14    15 1   
    32    14    16 1   
    33    14    50 1   
    34    15    51 1   
    35    16    17 1   
    36    16    52 1   
    37    16    53 1   
    38    17    18 1   
    39    17    54 1   
    40    18    19 2   
    41    18    20 1   
    42    20    21 1   
    43    20    55 1   
    44    21    22 1   
    45    21    56 1   
    46    21    57 1   
    47    22    23 ar  
    48    22    25 ar  
    49    23    24 ar  
    50    23    58 1   
    51    24    27 ar  
    52    24    59 1   
    53    25    26 ar  
    54    25    60 1   
    55    26    27 ar  
    56    26    61 1   
    57    27    28 1   
    58    28    29 1   
    59    28    32 2   
    60    29    30 1   
    61    30    31 2   
    62    30    62 1   
    63    31    32 1   
    64    32    33 1   
    65    33    63 1   
    66    33    64 1   
    67    33    65 1   
@<TRIPOS>SUBSTRUCTURE
     1 3JF         1 TEMP              0 ****  ****    0 ROOT
