@<TRIPOS>MOLECULE
3JF
   65    67     1     0     0
SMALL
bcc


@<TRIPOS>ATOM
      1 CAA         -8.0660     0.4130     1.9080 c3         1 3JF      -0.179100
      2 CAV         -7.1650    -0.1400     0.8330 c          1 3JF       0.672100
      3 OAF         -7.4710    -1.1240     0.1730 o          1 3JF      -0.618100
      4 NAT         -6.0250     0.5520     0.6440 ns         1 3JF      -0.565900
      5 CBE         -5.0300     0.2200    -0.3480 c3         1 3JF       0.047700
      6 CBG         -4.9940     1.2440    -1.5210 c3         1 3JF      -0.047000
      7 CAD         -4.5900     2.6430    -1.0570 c3         1 3JF      -0.089433
      8 CAE         -4.0080     0.7640    -2.5880 c3         1 3JF      -0.089433
      9 CAC         -6.3940     1.3110    -2.1370 c3         1 3JF      -0.089433
     10 CAX         -3.6900     0.1040     0.3730 c          1 3JF       0.673100
     11 OAH         -3.3800     0.9210     1.2320 o          1 3JF      -0.616100
     12 N           -2.8610    -0.8980     0.0450 n          1 3JF      -0.456800
     13 CD2         -3.1160    -2.0500    -0.8100 c5         1 3JF       0.069000
     14 CG          -2.0960    -3.0720    -0.3200 c5         1 3JF       0.130100
     15 OD1         -2.5040    -3.7040     0.8710 oh         1 3JF      -0.590800
     16 CB          -0.9050    -2.1880     0.0100 c5         1 3JF      -0.083400
     17 CA          -1.5480    -0.9560     0.6620 c5         1 3JF       0.031700
     18 C           -0.7360     0.2970     0.3580 c          1 3JF       0.673100
     19 O           -0.8350     0.8810    -0.7100 o          1 3JF      -0.605100
     20 NAS          0.1280     0.6410     1.3230 ns         1 3JF      -0.561900
     21 CAO          1.0740     1.7310     1.2100 c3         1 3JF       0.147300
     22 CAY          2.4510     1.2760     0.7980 ca         1 3JF      -0.108300
     23 CAK          2.6740     0.7270    -0.4640 ca         1 3JF      -0.115500
     24 CAM          3.9350     0.3000    -0.8380 ca         1 3JF      -0.118000
     25 CAJ          3.5280     1.3920     1.6670 ca         1 3JF      -0.115500
     26 CAL          4.7980     0.9770     1.2940 ca         1 3JF      -0.118000
     27 CBA          5.0200     0.4160     0.0380 ca         1 3JF      -0.003000
     28 CBB          6.3560    -0.0270    -0.3640 cc         1 3JF      -0.105400
     29 SAU          6.9690     0.3260    -1.9390 ss         1 3JF      -0.172300
     30 CAN          8.4190    -0.4940    -1.5400 cc         1 3JF       0.413300
     31 NAR          8.4530    -0.9870    -0.3460 nd         1 3JF      -0.637000
     32 CAZ          7.2950    -0.7350     0.3390 cd         1 3JF       0.365600
     33 CAB          7.1490    -1.2600     1.7290 c3         1 3JF      -0.121400
     34 H1          -8.5300    -0.4030     2.4590 hc         1 3JF       0.061367
     35 H2          -7.5470     1.0620     2.6120 hc         1 3JF       0.061367
     36 H3          -8.8650     0.9920     1.4420 hc         1 3JF       0.061367
     37 H4          -5.8290     1.3290     1.2530 hn         1 3JF       0.330500
     38 H5          -5.3230    -0.7400    -0.7730 h1         1 3JF       0.085700
     39 H6          -3.5610     2.6800    -0.7020 hc         1 3JF       0.040144
     40 H7          -4.6760     3.3390    -1.8930 hc         1 3JF       0.040144
     41 H8          -5.2390     3.0170    -0.2620 hc         1 3JF       0.040144
     42 H9          -4.2910    -0.2130    -2.9850 hc         1 3JF       0.040144
     43 H10         -3.9940     1.4660    -3.4240 hc         1 3JF       0.040144
     44 H11         -2.9890     0.6980    -2.2040 hc         1 3JF       0.040144
     45 H12         -7.1200     1.7390    -1.4440 hc         1 3JF       0.040144
     46 H13         -6.3780     1.9470    -3.0240 hc         1 3JF       0.040144
     47 H14         -6.7520     0.3250    -2.4390 hc         1 3JF       0.040144
     48 H15         -4.1390    -2.4140    -0.7160 h1         1 3JF       0.061200
     49 H16         -2.9330    -1.8160    -1.8620 h1         1 3JF       0.061200
     50 H17         -1.8680    -3.7990    -1.1070 h1         1 3JF       0.053700
     51 H18         -3.3260    -4.1750     0.7020 ho         1 3JF       0.410000
     52 H19         -0.1770    -2.6720     0.6590 hc         1 3JF       0.072200
     53 H20         -0.4020    -1.9100    -0.9180 hc         1 3JF       0.072200
     54 H21         -1.6400    -1.0950     1.7430 h1         1 3JF       0.079700
     55 H22          0.1600     0.0880     2.1640 hn         1 3JF       0.316500
     56 H23          0.6810     2.4520     0.4940 h1         1 3JF       0.067200
     57 H24          1.1250     2.2350     2.1750 h1         1 3JF       0.067200
     58 H25          1.8550     0.6340    -1.1670 ha         1 3JF       0.139500
     59 H26          4.0770    -0.1380    -1.8190 ha         1 3JF       0.137500
     60 H27          3.3810     1.8260     2.6500 ha         1 3JF       0.139500
     61 H28          5.6230     1.1120     1.9820 ha         1 3JF       0.137500
     62 H29          9.2260    -0.5790    -2.2550 h5         1 3JF       0.053100
     63 H30          7.6290    -0.6020     2.4560 hc         1 3JF       0.051367
     64 H31          6.1030    -1.3610     2.0140 hc         1 3JF       0.051367
     65 H32          7.6220    -2.2370     1.8130 hc         1 3JF       0.051367
@<TRIPOS>BOND
     1     1     2 1   
     2     1    34 1   
     3     1    35 1   
     4     1    36 1   
     5     2     3 2   
     6     2     4 1   
     7     4     5 1   
     8     4    37 1   
     9     5     6 1   
    10     5    10 1   
    11     5    38 1   
    12     6     7 1   
    13     6     8 1   
    14     6     9 1   
    15     7    39 1   
    16     7    40 1   
    17     7    41 1   
    18     8    42 1   
    19     8    43 1   
    20     8    44 1   
    21     9    45 1   
    22     9    46 1   
    23     9    47 1   
    24    10    11 2   
    25    10    12 1   
    26    12    13 1   
    27    12    17 1   
    28    13    14 1   
    29    13    48 1   
    30    13    49 1   
    31    14    15 1   
    32    14    16 1   
    33    14    50 1   
    34    15    51 1   
    35    16    17 1   
    36    16    52 1   
    37    16    53 1   
    38    17    18 1   
    39    17    54 1   
    40    18    19 2   
    41    18    20 1   
    42    20    21 1   
    43    20    55 1   
    44    21    22 1   
    45    21    56 1   
    46    21    57 1   
    47    22    23 ar  
    48    22    25 ar  
    49    23    24 ar  
    50    23    58 1   
    51    24    27 ar  
    52    24    59 1   
    53    25    26 ar  
    54    25    60 1   
    55    26    27 ar  
    56    26    61 1   
    57    27    28 1   
    58    28    29 1   
    59    28    32 2   
    60    29    30 1   
    61    30    31 2   
    62    30    62 1   
    63    31    32 1   
    64    32    33 1   
    65    33    63 1   
    66    33    64 1   
    67    33    65 1   
@<TRIPOS>SUBSTRUCTURE
     1 3JF         1 TEMP              0 ****  ****    0 ROOT
