@<TRIPOS>MOLECULE
3JG
   55    57     1     0     0
SMALL
abcg2


@<TRIPOS>ATOM
      1 CAA          6.7530    -1.2460    -1.7660 c3         1 3JG      -0.087767
      2 CBB          5.7710    -1.4280    -0.6040 c3         1 3JG      -0.027000
      3 CAB          5.0030    -2.7330    -0.8270 c3         1 3JG      -0.087767
      4 CAC          6.5720    -1.4870     0.6980 c3         1 3JG      -0.087767
      5 CAN          4.8290    -0.2150    -0.6340 c3         1 3JG      -0.142400
      6 CAT          3.7210    -0.1420     0.3940 c          1 3JG       0.621100
      7 OAD          3.5580    -0.9530     1.2990 o          1 3JG      -0.605100
      8 N            2.8800     0.9030     0.2680 n          1 3JG      -0.401800
      9 CD2          2.9410     1.9790    -0.7050 c5         1 3JG       0.072000
     10 CG           2.1430     3.0880    -0.0280 c5         1 3JG       0.154300
     11 OD1          2.8920     3.7440     0.9690 oh         1 3JG      -0.652000
     12 CB           1.0380     2.3030     0.6600 c5         1 3JG      -0.085400
     13 CA           1.7410     1.0260     1.1530 c5         1 3JG       0.037700
     14 C            0.8050    -0.1660     1.0150 c          1 3JG       0.598100
     15 O            0.6520    -0.7520    -0.0430 o          1 3JG      -0.586100
     16 NAR          0.1020    -0.4580     2.1200 ns         1 3JG      -0.505900
     17 CAM         -0.9510    -1.4450     2.1100 c3         1 3JG       0.154300
     18 CAV         -2.1370    -1.0440     1.2690 ca         1 3JG      -0.082300
     19 CAH         -2.6280     0.2580     1.2920 ca         1 3JG      -0.099000
     20 CAJ         -3.7350     0.6180     0.5410 ca         1 3JG      -0.086500
     21 CAG         -2.7860    -1.9800     0.4710 ca         1 3JG      -0.099000
     22 CAI         -3.8940    -1.6310    -0.2810 ca         1 3JG      -0.086500
     23 CAW         -4.3850    -0.3240    -0.2590 ca         1 3JG      -0.120500
     24 CAX         -5.5410     0.0250    -1.0630 cc         1 3JG       0.164500
     25 OAS         -6.0200     1.2940    -1.0060 os         1 3JG      -0.261000
     26 CAK         -7.0650     1.3250    -1.8390 cc         1 3JG       0.430900
     27 NAQ         -7.3000     0.2030    -2.4210 nd         1 3JG      -0.673000
     28 CAL         -6.3320    -0.6480    -1.9370 cd         1 3JG       0.233900
     29 H1           6.2300    -1.2010    -2.7250 hc         1 3JG       0.037033
     30 H2           7.3310    -0.3250    -1.6610 hc         1 3JG       0.037033
     31 H3           7.4590    -2.0770    -1.8100 hc         1 3JG       0.037033
     32 H4           5.6940    -3.5780    -0.8740 hc         1 3JG       0.037033
     33 H5           4.2870    -2.9290    -0.0300 hc         1 3JG       0.037033
     34 H6           4.4550    -2.7070    -1.7720 hc         1 3JG       0.037033
     35 H7           7.2920    -2.3070     0.6620 hc         1 3JG       0.037033
     36 H8           7.1350    -0.5630     0.8510 hc         1 3JG       0.037033
     37 H9           5.9330    -1.6380     1.5650 hc         1 3JG       0.037033
     38 H10          5.4330     0.6970    -0.5490 hc         1 3JG       0.055200
     39 H11          4.3690    -0.1560    -1.6270 hc         1 3JG       0.055200
     40 H12          3.9660     2.2810    -0.9200 h1         1 3JG       0.054200
     41 H13          2.4700     1.6930    -1.6520 h1         1 3JG       0.054200
     42 H14          1.7450     3.7930    -0.7660 h1         1 3JG       0.051700
     43 H15          3.6250     4.2050     0.5490 ho         1 3JG       0.445000
     44 H16          0.5610     2.8550     1.4690 hc         1 3JG       0.070200
     45 H17          0.2680     2.0630    -0.0760 hc         1 3JG       0.070200
     46 H18          2.0670     1.1360     2.1920 h1         1 3JG       0.078700
     47 H19          0.2800     0.0490     2.9710 hn         1 3JG       0.318500
     48 H20         -0.5640    -2.4070     1.7670 h1         1 3JG       0.060200
     49 H21         -1.2660    -1.5870     3.1440 h1         1 3JG       0.060200
     50 H22         -2.1410     1.0100     1.9010 ha         1 3JG       0.115000
     51 H23         -4.0840     1.6410     0.5830 ha         1 3JG       0.120000
     52 H24         -2.4180    -2.9980     0.4290 ha         1 3JG       0.115000
     53 H25         -4.3720    -2.3830    -0.8960 ha         1 3JG       0.120000
     54 H26         -7.5960     2.2580    -1.9420 h5         1 3JG       0.082100
     55 H27         -6.2690    -1.6780    -2.2500 h4         1 3JG       0.050100
@<TRIPOS>BOND
     1     1     2 1   
     2     1    29 1   
     3     1    30 1   
     4     1    31 1   
     5     2     3 1   
     6     2     4 1   
     7     2     5 1   
     8     3    32 1   
     9     3    33 1   
    10     3    34 1   
    11     4    35 1   
    12     4    36 1   
    13     4    37 1   
    14     5     6 1   
    15     5    38 1   
    16     5    39 1   
    17     6     7 2   
    18     6     8 1   
    19     8     9 1   
    20     8    13 1   
    21     9    10 1   
    22     9    40 1   
    23     9    41 1   
    24    10    11 1   
    25    10    12 1   
    26    10    42 1   
    27    11    43 1   
    28    12    13 1   
    29    12    44 1   
    30    12    45 1   
    31    13    14 1   
    32    13    46 1   
    33    14    15 2   
    34    14    16 1   
    35    16    17 1   
    36    16    47 1   
    37    17    18 1   
    38    17    48 1   
    39    17    49 1   
    40    18    19 ar  
    41    18    21 ar  
    42    19    20 ar  
    43    19    50 1   
    44    20    23 ar  
    45    20    51 1   
    46    21    22 ar  
    47    21    52 1   
    48    22    23 ar  
    49    22    53 1   
    50    23    24 1   
    51    24    25 1   
    52    24    28 2   
    53    25    26 1   
    54    26    27 2   
    55    26    54 1   
    56    27    28 1   
    57    28    55 1   
@<TRIPOS>SUBSTRUCTURE
     1 3JG         1 TEMP              0 ****  ****    0 ROOT
