@<TRIPOS>MOLECULE
3JG
   55    57     1     0     0
SMALL
No Charge or Current Charge


@<TRIPOS>ATOM
      1 CAA          7.2710    -1.4030    -1.5320 c3         1 3JG      -0.087767
      2 CBB          6.1680    -1.5440    -0.4480 c3         1 3JG      -0.027000
      3 CAB          5.3590    -2.8360    -0.7430 c3         1 3JG      -0.087767
      4 CAC          6.8630    -1.6530     0.9360 c3         1 3JG      -0.087767
      5 CAN          5.2500    -0.2800    -0.5280 c3         1 3JG      -0.142400
      6 CAT          3.9940    -0.1810     0.3760 c          1 3JG       0.621100
      7 OAD          3.8030    -0.9240     1.3310 o          1 3JG      -0.605100
      8 N            3.0400     0.8120     0.0600 n          1 3JG      -0.401800
      9 CD2          3.3160     1.9680    -0.8290 c5         1 3JG       0.072000
     10 CG           2.2110     2.9920    -0.4240 c5         1 3JG       0.154300
     11 OD1          2.5950     3.7990     0.6960 oh         1 3JG      -0.652000
     12 CB           1.0400     2.0480    -0.0590 c5         1 3JG      -0.085400
     13 CA           1.7400     0.9340     0.7790 c5         1 3JG       0.037700
     14 C            0.8340    -0.3380     0.7520 c          1 3JG       0.598100
     15 O            0.8890    -1.2770    -0.0340 o          1 3JG      -0.586100
     16 NAR         -0.0880    -0.2620     1.7740 ns         1 3JG      -0.505900
     17 CAM         -1.1380    -1.2510     2.0160 c3         1 3JG       0.154300
     18 CAV         -2.4240    -0.8770     1.2930 ca         1 3JG      -0.082300
     19 CAH         -3.3830    -0.0620     1.9220 ca         1 3JG      -0.099000
     20 CAJ         -4.5660     0.2900     1.2510 ca         1 3JG      -0.086500
     21 CAG         -2.6620    -1.3320    -0.0160 ca         1 3JG      -0.099000
     22 CAI         -3.8460    -0.9810    -0.6890 ca         1 3JG      -0.086500
     23 CAW         -4.8130    -0.1650    -0.0620 ca         1 3JG      -0.120500
     24 CAX         -6.0570     0.2140    -0.7470 cc         1 3JG       0.164500
     25 OAS         -7.0030     0.9960    -0.1740 os         1 3JG      -0.261000
     26 CAK         -7.9570     1.0840    -1.1480 cc         1 3JG       0.430900
     27 NAQ         -7.6700     0.4200    -2.2680 nd         1 3JG      -0.673000
     28 CAL         -6.4340    -0.1490    -2.0140 cd         1 3JG       0.233900
     29 H1           6.8330    -1.3360    -2.5350 hc         1 3JG       0.037033
     30 H2           7.8730    -0.5010    -1.3650 hc         1 3JG       0.037033
     31 H3           7.9490    -2.2650    -1.5200 hc         1 3JG       0.037033
     32 H4           6.0210    -3.7090    -0.7830 hc         1 3JG       0.037033
     33 H5           4.6080    -3.0300     0.0310 hc         1 3JG       0.037033
     34 H6           4.8410    -2.7610    -1.7070 hc         1 3JG       0.037033
     35 H7           7.5880    -2.4760     0.9440 hc         1 3JG       0.037033
     36 H8           7.4030    -0.7290     1.1770 hc         1 3JG       0.037033
     37 H9           6.1460    -1.8460     1.7410 hc         1 3JG       0.037033
     38 H10          5.8360     0.6300    -0.3550 hc         1 3JG       0.055200
     39 H11          4.9180    -0.1130    -1.5590 hc         1 3JG       0.055200
     40 H12          4.3230     2.3800    -0.6830 h1         1 3JG       0.054200
     41 H13          3.2140     1.6740    -1.8820 h1         1 3JG       0.054200
     42 H14          1.9470     3.6400    -1.2720 h1         1 3JG       0.051700
     43 H15          3.3170     4.3920     0.3900 ho         1 3JG       0.445000
     44 H16          0.2420     2.5550     0.4950 hc         1 3JG       0.070200
     45 H17          0.5860     1.6360    -0.9690 hc         1 3JG       0.070200
     46 H18          1.9060     1.2470     1.8190 h1         1 3JG       0.078700
     47 H19         -0.0560     0.5590     2.3670 hn         1 3JG       0.318500
     48 H20         -0.7970    -2.2420     1.6870 h1         1 3JG       0.060200
     49 H21         -1.3250    -1.3080     3.0960 h1         1 3JG       0.060200
     50 H22         -3.2110     0.3010     2.9330 ha         1 3JG       0.115000
     51 H23         -5.2920     0.9210     1.7600 ha         1 3JG       0.120000
     52 H24         -1.9270    -1.9580    -0.5170 ha         1 3JG       0.115000
     53 H25         -3.9970    -1.3500    -1.7000 ha         1 3JG       0.120000
     54 H26         -8.8470     1.6690    -0.9430 h5         1 3JG       0.082100
     55 H27         -5.9160    -0.7630    -2.7400 h4         1 3JG       0.050100
@<TRIPOS>BOND
     1     1     2 1   
     2     1    29 1   
     3     1    30 1   
     4     1    31 1   
     5     2     3 1   
     6     2     4 1   
     7     2     5 1   
     8     3    32 1   
     9     3    33 1   
    10     3    34 1   
    11     4    35 1   
    12     4    36 1   
    13     4    37 1   
    14     5     6 1   
    15     5    38 1   
    16     5    39 1   
    17     6     7 2   
    18     6     8 1   
    19     8     9 1   
    20     8    13 1   
    21     9    10 1   
    22     9    40 1   
    23     9    41 1   
    24    10    11 1   
    25    10    12 1   
    26    10    42 1   
    27    11    43 1   
    28    12    13 1   
    29    12    44 1   
    30    12    45 1   
    31    13    14 1   
    32    13    46 1   
    33    14    15 2   
    34    14    16 1   
    35    16    17 1   
    36    16    47 1   
    37    17    18 1   
    38    17    48 1   
    39    17    49 1   
    40    18    19 ar  
    41    18    21 ar  
    42    19    20 ar  
    43    19    50 1   
    44    20    23 ar  
    45    20    51 1   
    46    21    22 ar  
    47    21    52 1   
    48    22    23 ar  
    49    22    53 1   
    50    23    24 1   
    51    24    25 1   
    52    24    28 2   
    53    25    26 1   
    54    26    27 2   
    55    26    54 1   
    56    27    28 1   
    57    28    55 1   
@<TRIPOS>SUBSTRUCTURE
     1 3JG         1 TEMP              0 ****  ****    0 ROOT
