@<TRIPOS>MOLECULE
3JH
   84    86     1     0     0
SMALL
abcg2


@<TRIPOS>ATOM
      1 CD1          1.4130     4.6020    -1.1530 c3         1 3JH      -0.090600
      2 CG           2.7400     4.1290    -0.5680 c3         1 3JH      -0.056700
      3 CD2          3.1100     4.9660     0.6520 c3         1 3JH      -0.090600
      4 CB           2.6510     2.6370    -0.2450 c3         1 3JH      -0.090400
      5 CA           3.9380     2.0240     0.3230 c3         1 3JH       0.046700
      6 N            5.1140     2.3660    -0.4360 ns         1 3JH      -0.493900
      7 CAA          5.3600     1.8510    -1.6520 c          1 3JH       0.606100
      8 OAC          4.5680     1.1090    -2.2160 o          1 3JH      -0.605100
      9 CAD          6.6840     2.2320    -2.2650 c3         1 3JH      -0.177100
     10 C            3.9030     0.5020     0.5450 c          1 3JH       0.604100
     11 O            4.9360    -0.1290     0.6950 o          1 3JH      -0.611100
     12 NAH          2.6800    -0.0380     0.6490 ns         1 3JH      -0.491900
     13 CAI          2.4130    -1.4410     0.8630 c3         1 3JH       0.049700
     14 CAJ          1.9050    -1.7210     2.3090 c3         1 3JH      -0.046000
     15 CAL          1.6510    -3.2160     2.5020 c3         1 3JH      -0.089100
     16 CAM          2.9940    -1.2780     3.2900 c3         1 3JH      -0.089100
     17 CAK          0.6180    -0.9540     2.6150 c3         1 3JH      -0.089100
     18 CAQ          1.3970    -1.8450    -0.2040 c          1 3JH       0.603100
     19 OAR          0.5080    -1.0630    -0.5200 o          1 3JH      -0.621100
     20 NAS          1.4880    -3.0520    -0.7810 n          1 3JH      -0.385800
     21 CAW          2.5430    -4.0480    -0.6580 c5         1 3JH       0.071000
     22 CAV          2.3980    -4.8610    -1.9410 c5         1 3JH       0.153300
     23 OAZ          2.9800    -4.2180    -3.0500 oh         1 3JH      -0.650000
     24 CAU          0.8910    -4.8620    -2.1400 c5         1 3JH      -0.081400
     25 CAT          0.4780    -3.4380    -1.7540 c5         1 3JH       0.030700
     26 CAX         -0.9100    -3.3960    -1.1230 c          1 3JH       0.602100
     27 OAY         -1.1130    -3.8720    -0.0180 o          1 3JH      -0.607100
     28 NBA         -1.8660    -2.8690    -1.9030 ns         1 3JH      -0.482900
     29 CBB         -3.2080    -2.5870    -1.4300 c3         1 3JH       0.144300
     30 CBC         -3.2910    -1.2070    -0.8290 ca         1 3JH      -0.113300
     31 CBH         -3.7710    -0.1340    -1.5720 ca         1 3JH      -0.087500
     32 CBG         -3.7580     1.1520    -1.0550 ca         1 3JH      -0.097000
     33 CBD         -2.8190    -0.9670     0.4590 ca         1 3JH      -0.087500
     34 CBE         -2.8110     0.3140     0.9830 ca         1 3JH      -0.097000
     35 CBF         -3.2650     1.3970     0.2270 ca         1 3JH      -0.005000
     36 CBI         -3.2180     2.7550     0.7680 cc         1 3JH      -0.177000
     37 SBM         -4.5370     3.8490     0.5600 ss         1 3JH      -0.031400
     38 CBL         -3.6600     5.0450     1.4160 cc         1 3JH       0.410300
     39 NBK         -2.4920     4.6730     1.8240 nd         1 3JH      -0.639000
     40 CBJ         -2.2190     3.3800     1.4680 cd         1 3JH       0.296300
     41 CBN         -0.8970     2.7930     1.8350 c3         1 3JH      -0.124400
     42 H1           1.4710     5.6450    -1.4680 hc         1 3JH       0.033867
     43 H2           1.1210     4.0080    -2.0210 hc         1 3JH       0.033867
     44 H3           0.6100     4.5270    -0.4160 hc         1 3JH       0.033867
     45 H4           3.5110     4.2700    -1.3320 hc         1 3JH       0.051700
     46 H5           4.0880     4.7060     1.0610 hc         1 3JH       0.033867
     47 H6           3.1400     6.0270     0.3980 hc         1 3JH       0.033867
     48 H7           2.3730     4.8390     1.4490 hc         1 3JH       0.033867
     49 H8           1.8540     2.5080     0.4970 hc         1 3JH       0.059200
     50 H9           2.3460     2.0980    -1.1440 hc         1 3JH       0.059200
     51 H10          4.0980     2.4410     1.3210 h1         1 3JH       0.064700
     52 H11          5.8190     2.9280     0.0090 hn         1 3JH       0.319500
     53 H12          7.1860     3.0440    -1.7440 hc         1 3JH       0.059700
     54 H13          7.3430     1.3630    -2.2550 hc         1 3JH       0.059700
     55 H14          6.5400     2.5190    -3.3060 hc         1 3JH       0.059700
     56 H15          1.8760     0.5160     0.4040 hn         1 3JH       0.336500
     57 H16          3.3520    -1.9800     0.7320 h1         1 3JH       0.086700
     58 H17          2.5550    -3.8070     2.3430 hc         1 3JH       0.039478
     59 H18          1.3230    -3.3990     3.5270 hc         1 3JH       0.039478
     60 H19          0.8690    -3.5950     1.8420 hc         1 3JH       0.039478
     61 H20          3.1500    -0.1990     3.2630 hc         1 3JH       0.039478
     62 H21          2.7050    -1.5420     4.3090 hc         1 3JH       0.039478
     63 H22          3.9480    -1.7640     3.0780 hc         1 3JH       0.039478
     64 H23         -0.2270    -1.3110     2.0270 hc         1 3JH       0.039478
     65 H24          0.3600    -1.0800     3.6690 hc         1 3JH       0.039478
     66 H25          0.7250     0.1170     2.4350 hc         1 3JH       0.039478
     67 H26          3.5300    -3.5950    -0.5690 h1         1 3JH       0.060700
     68 H27          2.3860    -4.6940     0.2090 h1         1 3JH       0.060700
     69 H28          2.7950    -5.8730    -1.8040 h1         1 3JH       0.051700
     70 H29          3.9320    -4.1750    -2.9150 ho         1 3JH       0.450000
     71 H30          0.5950    -5.1190    -3.1560 hc         1 3JH       0.073200
     72 H31          0.4410    -5.5880    -1.4600 hc         1 3JH       0.073200
     73 H32          0.5220    -2.7760    -2.6240 h1         1 3JH       0.079700
     74 H33         -1.5770    -2.3910    -2.7410 hn         1 3JH       0.315500
     75 H34         -3.8920    -2.6780    -2.2730 h1         1 3JH       0.064200
     76 H35         -3.4860    -3.3460    -0.7010 h1         1 3JH       0.064200
     77 H36         -4.1490    -0.3000    -2.5740 ha         1 3JH       0.120500
     78 H37         -4.1150     1.9730    -1.6660 ha         1 3JH       0.116500
     79 H38         -2.4510    -1.7900     1.0570 ha         1 3JH       0.120500
     80 H39         -2.4610     0.4710     1.9950 ha         1 3JH       0.116500
     81 H40         -4.0760     6.0290     1.5860 h5         1 3JH       0.051100
     82 H41         -0.9060     2.3830     2.8470 hc         1 3JH       0.052033
     83 H42         -0.6140     1.9880     1.1580 hc         1 3JH       0.052033
     84 H43         -0.1250     3.5610     1.8030 hc         1 3JH       0.052033
@<TRIPOS>BOND
     1     1     2 1   
     2     1    42 1   
     3     1    43 1   
     4     1    44 1   
     5     2     3 1   
     6     2     4 1   
     7     2    45 1   
     8     3    46 1   
     9     3    47 1   
    10     3    48 1   
    11     4     5 1   
    12     4    49 1   
    13     4    50 1   
    14     5     6 1   
    15     5    10 1   
    16     5    51 1   
    17     6     7 1   
    18     6    52 1   
    19     7     8 2   
    20     7     9 1   
    21     9    53 1   
    22     9    54 1   
    23     9    55 1   
    24    10    11 2   
    25    10    12 1   
    26    12    13 1   
    27    12    56 1   
    28    13    14 1   
    29    13    18 1   
    30    13    57 1   
    31    14    15 1   
    32    14    16 1   
    33    14    17 1   
    34    15    58 1   
    35    15    59 1   
    36    15    60 1   
    37    16    61 1   
    38    16    62 1   
    39    16    63 1   
    40    17    64 1   
    41    17    65 1   
    42    17    66 1   
    43    18    19 2   
    44    18    20 1   
    45    20    21 1   
    46    20    25 1   
    47    21    22 1   
    48    21    67 1   
    49    21    68 1   
    50    22    23 1   
    51    22    24 1   
    52    22    69 1   
    53    23    70 1   
    54    24    25 1   
    55    24    71 1   
    56    24    72 1   
    57    25    26 1   
    58    25    73 1   
    59    26    27 2   
    60    26    28 1   
    61    28    29 1   
    62    28    74 1   
    63    29    30 1   
    64    29    75 1   
    65    29    76 1   
    66    30    31 ar  
    67    30    33 ar  
    68    31    32 ar  
    69    31    77 1   
    70    32    35 ar  
    71    32    78 1   
    72    33    34 ar  
    73    33    79 1   
    74    34    35 ar  
    75    34    80 1   
    76    35    36 1   
    77    36    37 1   
    78    36    40 2   
    79    37    38 1   
    80    38    39 2   
    81    38    81 1   
    82    39    40 1   
    83    40    41 1   
    84    41    82 1   
    85    41    83 1   
    86    41    84 1   
@<TRIPOS>SUBSTRUCTURE
     1 3JH         1 TEMP              0 ****  ****    0 ROOT
