@<TRIPOS>MOLECULE
3JH
   84    86     1     0     0
SMALL
No Charge or Current Charge


@<TRIPOS>ATOM
      1 CD1          1.1400     4.5350    -1.5070 c3         1 3JH      -0.090600
      2 CG           2.3880     4.1970    -0.6590 c3         1 3JH      -0.056700
      3 CD2          2.3790     4.9920     0.6690 c3         1 3JH      -0.090600
      4 CB           2.5030     2.6620    -0.4400 c3         1 3JH      -0.090400
      5 CA           3.7630     2.1730     0.3460 c3         1 3JH       0.046700
      6 N            5.0330     2.7580    -0.1500 ns         1 3JH      -0.493900
      7 CAA          5.5440     2.6010    -1.4210 c          1 3JH       0.606100
      8 OAC          4.9900     1.9400    -2.2870 o          1 3JH      -0.605100
      9 CAD          6.8640     3.3200    -1.6640 c3         1 3JH      -0.177100
     10 C            3.8650     0.6150     0.4860 c          1 3JH       0.604100
     11 O            4.9250     0.0000     0.4620 o          1 3JH      -0.611100
     12 NAH          2.6610    -0.0370     0.6460 ns         1 3JH      -0.491900
     13 CAI          2.4630    -1.5030     0.7590 c3         1 3JH       0.049700
     14 CAJ          2.2040    -1.9280     2.2590 c3         1 3JH      -0.046000
     15 CAL          2.0770    -3.4670     2.4060 c3         1 3JH      -0.089100
     16 CAM          3.3910    -1.4720     3.1550 c3         1 3JH      -0.089100
     17 CAK          0.9000    -1.2760     2.8020 c3         1 3JH      -0.089100
     18 CAQ          1.3120    -1.8910    -0.2320 c          1 3JH       0.603100
     19 OAR          0.4590    -1.0660    -0.5480 o          1 3JH      -0.621100
     20 NAS          1.2270    -3.2060    -0.7420 n          1 3JH      -0.385800
     21 CAW          2.4140    -4.0680    -0.9760 c5         1 3JH       0.071000
     22 CAV          1.9040    -5.1110    -2.0230 c5         1 3JH       0.153300
     23 OAZ          2.1420    -4.6910    -3.3710 oh         1 3JH      -0.650000
     24 CAU          0.3860    -5.1580    -1.7110 c5         1 3JH      -0.081400
     25 CAT          0.0490    -3.6520    -1.5290 c5         1 3JH       0.030700
     26 CAX         -1.3140    -3.5000    -0.7830 c          1 3JH       0.602100
     27 OAY         -1.5270    -3.6660     0.4120 o          1 3JH      -0.607100
     28 NBA         -2.2860    -3.1050    -1.6780 ns         1 3JH      -0.482900
     29 CBB         -3.5770    -2.5530    -1.2750 c3         1 3JH       0.144300
     30 CBC         -3.3990    -1.1140    -0.8080 ca         1 3JH      -0.113300
     31 CBH         -3.1940    -0.0850    -1.7470 ca         1 3JH      -0.087500
     32 CBG         -2.9480     1.2300    -1.3160 ca         1 3JH      -0.097000
     33 CBD         -3.3730    -0.8080     0.5660 ca         1 3JH      -0.087500
     34 CBE         -3.1290     0.5080     0.9950 ca         1 3JH      -0.097000
     35 CBF         -2.8940     1.5330     0.0570 ca         1 3JH      -0.005000
     36 CBI         -2.6110     2.9010     0.4880 cc         1 3JH      -0.177000
     37 SBM         -3.3870     4.3220    -0.1410 ss         1 3JH      -0.031400
     38 CBL         -2.3480     5.2450     0.9160 cc         1 3JH       0.410300
     39 NBK         -1.4710     4.5590     1.6420 nd         1 3JH      -0.639000
     40 CBJ         -1.6040     3.2020     1.3850 cd         1 3JH       0.296300
     41 CBN         -0.6650     2.2400     2.0650 c3         1 3JH      -0.124400
     42 H1           1.0820     5.6130    -1.7010 hc         1 3JH       0.033867
     43 H2           1.1760     4.0200    -2.4740 hc         1 3JH       0.033867
     44 H3           0.2210     4.2300    -0.9910 hc         1 3JH       0.033867
     45 H4           3.2610     4.5280    -1.2350 hc         1 3JH       0.051700
     46 H5           3.3160     4.8540     1.2200 hc         1 3JH       0.033867
     47 H6           2.2650     6.0650     0.4750 hc         1 3JH       0.033867
     48 H7           1.5500     4.6720     1.3110 hc         1 3JH       0.033867
     49 H8           1.5990     2.3320     0.0850 hc         1 3JH       0.059200
     50 H9           2.4830     2.1650    -1.4180 hc         1 3JH       0.059200
     51 H10          3.6410     2.5280     1.3770 h1         1 3JH       0.064700
     52 H11          5.5880     3.3140     0.4890 hn         1 3JH       0.319500
     53 H12          6.7410     4.3820    -1.4260 hc         1 3JH       0.059700
     54 H13          7.5920     2.9950    -0.9120 hc         1 3JH       0.059700
     55 H14          7.2420     3.1750    -2.6830 hc         1 3JH       0.059700
     56 H15          1.8270     0.5360     0.6030 hn         1 3JH       0.336500
     57 H16          3.3740    -2.0040     0.4090 h1         1 3JH       0.086700
     58 H17          2.9880    -3.9700     2.0610 hc         1 3JH       0.039478
     59 H18          1.9270    -3.7470     3.4560 hc         1 3JH       0.039478
     60 H19          1.2210    -3.8600     1.8450 hc         1 3JH       0.039478
     61 H20          3.4750    -0.3800     3.1920 hc         1 3JH       0.039478
     62 H21          3.2630    -1.8230     4.1870 hc         1 3JH       0.039478
     63 H22          4.3410    -1.8740     2.7800 hc         1 3JH       0.039478
     64 H23          0.0250    -1.5800     2.2160 hc         1 3JH       0.039478
     65 H24          0.7200    -1.5730     3.8430 hc         1 3JH       0.039478
     66 H25          0.9630    -0.1820     2.7810 hc         1 3JH       0.039478
     67 H26          3.2730    -3.4970    -1.3530 h1         1 3JH       0.060700
     68 H27          2.7190    -4.5770    -0.0550 h1         1 3JH       0.060700
     69 H28          2.3680    -6.0940    -1.8560 h1         1 3JH       0.051700
     70 H29          3.1070    -4.7770    -3.5350 ho         1 3JH       0.450000
     71 H30         -0.1990    -5.6290    -2.5090 hc         1 3JH       0.073200
     72 H31          0.1970    -5.7260    -0.7910 hc         1 3JH       0.073200
     73 H32          0.0110    -3.1240    -2.4910 h1         1 3JH       0.079700
     74 H33         -2.0080    -3.0070    -2.6460 hn         1 3JH       0.315500
     75 H34         -4.2640    -2.5850    -2.1310 h1         1 3JH       0.064200
     76 H35         -4.0070    -3.1680    -0.4720 h1         1 3JH       0.064200
     77 H36         -3.2050    -0.3070    -2.8120 ha         1 3JH       0.120500
     78 H37         -2.7750     2.0110    -2.0520 ha         1 3JH       0.116500
     79 H38         -3.5230    -1.5930     1.3040 ha         1 3JH       0.120500
     80 H39         -3.1160     0.7280     2.0590 ha         1 3JH       0.116500
     81 H40         -2.4460     6.3240     0.9340 h5         1 3JH       0.051100
     82 H41         -1.1180     1.8290     2.9740 hc         1 3JH       0.052033
     83 H42         -0.4110     1.4050     1.4030 hc         1 3JH       0.052033
     84 H43          0.2720     2.7310     2.3520 hc         1 3JH       0.052033
@<TRIPOS>BOND
     1     1     2 1   
     2     1    42 1   
     3     1    43 1   
     4     1    44 1   
     5     2     3 1   
     6     2     4 1   
     7     2    45 1   
     8     3    46 1   
     9     3    47 1   
    10     3    48 1   
    11     4     5 1   
    12     4    49 1   
    13     4    50 1   
    14     5     6 1   
    15     5    10 1   
    16     5    51 1   
    17     6     7 1   
    18     6    52 1   
    19     7     8 2   
    20     7     9 1   
    21     9    53 1   
    22     9    54 1   
    23     9    55 1   
    24    10    11 2   
    25    10    12 1   
    26    12    13 1   
    27    12    56 1   
    28    13    14 1   
    29    13    18 1   
    30    13    57 1   
    31    14    15 1   
    32    14    16 1   
    33    14    17 1   
    34    15    58 1   
    35    15    59 1   
    36    15    60 1   
    37    16    61 1   
    38    16    62 1   
    39    16    63 1   
    40    17    64 1   
    41    17    65 1   
    42    17    66 1   
    43    18    19 2   
    44    18    20 1   
    45    20    21 1   
    46    20    25 1   
    47    21    22 1   
    48    21    67 1   
    49    21    68 1   
    50    22    23 1   
    51    22    24 1   
    52    22    69 1   
    53    23    70 1   
    54    24    25 1   
    55    24    71 1   
    56    24    72 1   
    57    25    26 1   
    58    25    73 1   
    59    26    27 2   
    60    26    28 1   
    61    28    29 1   
    62    28    74 1   
    63    29    30 1   
    64    29    75 1   
    65    29    76 1   
    66    30    31 ar  
    67    30    33 ar  
    68    31    32 ar  
    69    31    77 1   
    70    32    35 ar  
    71    32    78 1   
    72    33    34 ar  
    73    33    79 1   
    74    34    35 ar  
    75    34    80 1   
    76    35    36 1   
    77    36    37 1   
    78    36    40 2   
    79    37    38 1   
    80    38    39 2   
    81    38    81 1   
    82    39    40 1   
    83    40    41 1   
    84    41    82 1   
    85    41    83 1   
    86    41    84 1   
@<TRIPOS>SUBSTRUCTURE
     1 3JH         1 TEMP              0 ****  ****    0 ROOT
