@<TRIPOS>MOLECULE
3JJ
   84    86     1     0     0
SMALL
No Charge or Current Charge


@<TRIPOS>ATOM
      1 CAD          9.9030     1.5680     0.5000 c3         1 3JJ      -0.179100
      2 CAA          8.4510     1.7860     0.9030 c          1 3JJ       0.604100
      3 OAC          8.1340     2.2970     1.9670 o          1 3JJ      -0.610100
      4 N            7.5280     1.3560    -0.0220 ns         1 3JJ      -0.498900
      5 CA           6.0540     1.4560     0.1230 c3         1 3JJ       0.038700
      6 CB           5.4710     2.6860    -0.6750 c3         1 3JJ      -0.050000
      7 CG1          6.1110     4.0070    -0.1620 c3         1 3JJ      -0.087767
      8 CBO          5.7600     2.5550    -2.1980 c3         1 3JJ      -0.087767
      9 CG2          3.9340     2.7980    -0.4730 c3         1 3JJ      -0.087767
     10 C            5.4220     0.0860    -0.2790 c          1 3JJ       0.594100
     11 O            5.9360    -0.6730    -1.0920 o          1 3JJ      -0.622100
     12 NAH          4.2480    -0.2360     0.3710 ns         1 3JJ      -0.486900
     13 CAI          3.4620    -1.4780     0.1650 c3         1 3JJ       0.045700
     14 CAJ          3.7340    -2.5360     1.3050 c3         1 3JJ      -0.043000
     15 CAL          5.2540    -2.8530     1.3940 c3         1 3JJ      -0.090100
     16 CAM          3.2620    -1.9980     2.6860 c3         1 3JJ      -0.090100
     17 CAK          2.9960    -3.8730     1.0210 c3         1 3JJ      -0.090100
     18 CAO          1.9530    -1.0810     0.0060 c          1 3JJ       0.600100
     19 OAP          1.4990    -0.0910     0.5740 o          1 3JJ      -0.618100
     20 NAQ          1.0990    -1.8950    -0.7710 n          1 3JJ      -0.388800
     21 CAU          1.5750    -2.6740    -1.9430 c5         1 3JJ       0.069000
     22 CAT          0.2850    -2.8630    -2.8020 c5         1 3JJ       0.153300
     23 OAX          0.0880    -1.7930    -3.7340 oh         1 3JJ      -0.653000
     24 CAS         -0.8140    -2.8650    -1.7120 c5         1 3JJ      -0.082400
     25 CAR         -0.3750    -1.6860    -0.7960 c5         1 3JJ       0.030700
     26 CAV         -1.0930    -1.8280     0.5830 c          1 3JJ       0.606100
     27 OAW         -0.6730    -2.3760     1.5940 o          1 3JJ      -0.601100
     28 NAY         -2.3290    -1.2250     0.5180 ns         1 3JJ      -0.493900
     29 CAZ         -3.2720    -1.1690     1.6300 c3         1 3JJ       0.142300
     30 CBA         -4.5570    -0.4690     1.2190 ca         1 3JJ      -0.101300
     31 CBF         -5.6200    -1.2050     0.6620 ca         1 3JJ      -0.100000
     32 CBE         -6.8060    -0.5560     0.2770 ca         1 3JJ      -0.096500
     33 CBB         -4.6940     0.9220     1.3860 ca         1 3JJ      -0.100000
     34 CBC         -5.8810     1.5690     1.0000 ca         1 3JJ      -0.096500
     35 CBD         -6.9410     0.8360     0.4330 ca         1 3JJ      -0.004000
     36 CBG         -8.1840     1.4930     0.0360 cc         1 3JJ      -0.186000
     37 SBK         -9.7740     0.9670     0.4970 ss         1 3JJ      -0.027400
     38 CBJ        -10.3900     2.2860    -0.4670 cc         1 3JJ       0.413300
     39 NBI         -9.4910     3.0310    -1.1070 nd         1 3JJ      -0.637000
     40 CBH         -8.2120     2.5690    -0.8310 cd         1 3JJ       0.301300
     41 CBL         -7.0380     3.2440    -1.4900 c3         1 3JJ      -0.122400
     42 H1          10.6100     1.9180     1.2610 hc         1 3JJ       0.061033
     43 H2          10.0530     0.5080     0.2650 hc         1 3JJ       0.061033
     44 H3          10.0800     2.0490    -0.4690 hc         1 3JJ       0.061033
     45 H4           7.8940     0.9100    -0.8550 hn         1 3JJ       0.328500
     46 H5           5.8220     1.5960     1.1870 h1         1 3JJ       0.090700
     47 H6           7.1890     4.0370    -0.3630 hc         1 3JJ       0.039256
     48 H7           5.6640     4.8780    -0.6560 hc         1 3JJ       0.039256
     49 H8           5.9620     4.1200     0.9180 hc         1 3JJ       0.039256
     50 H9           5.2980     1.6520    -2.6160 hc         1 3JJ       0.039256
     51 H10          5.3580     3.4160    -2.7450 hc         1 3JJ       0.039256
     52 H11          6.8370     2.5090    -2.3990 hc         1 3JJ       0.039256
     53 H12          3.6780     2.8250     0.5940 hc         1 3JJ       0.039256
     54 H13          3.5450     3.7160    -0.9320 hc         1 3JJ       0.039256
     55 H14          3.4020     1.9590    -0.9360 hc         1 3JJ       0.039256
     56 H15          3.8710     0.4570     1.0070 hn         1 3JJ       0.336500
     57 H16          3.7800    -1.9210    -0.7860 h1         1 3JJ       0.084700
     58 H17          5.8330    -1.9740     1.7010 hc         1 3JJ       0.041144
     59 H18          5.4490    -3.6430     2.1300 hc         1 3JJ       0.041144
     60 H19          5.6400    -3.1950     0.4260 hc         1 3JJ       0.041144
     61 H20          2.1810    -1.8150     2.6950 hc         1 3JJ       0.041144
     62 H21          3.4800    -2.7220     3.4810 hc         1 3JJ       0.041144
     63 H22          3.7690    -1.0610     2.9450 hc         1 3JJ       0.041144
     64 H23          3.3140    -4.3000     0.0640 hc         1 3JJ       0.041144
     65 H24          3.2160    -4.6120     1.8010 hc         1 3JJ       0.041144
     66 H25          1.9080    -3.7400     1.0010 hc         1 3JJ       0.041144
     67 H26          2.3600    -2.1480    -2.5030 h1         1 3JJ       0.061200
     68 H27          1.9700    -3.6480    -1.6300 h1         1 3JJ       0.061200
     69 H28          0.3070    -3.8220    -3.3400 h1         1 3JJ       0.054700
     70 H29          0.7600    -1.9000    -4.4440 ho         1 3JJ       0.449000
     71 H30         -1.8200    -2.7290    -2.1250 hc         1 3JJ       0.074200
     72 H31         -0.8140    -3.8170    -1.1670 hc         1 3JJ       0.074200
     73 H32         -0.6190    -0.7100    -1.2370 h1         1 3JJ       0.076700
     74 H33         -2.5950    -0.7950    -0.3600 hn         1 3JJ       0.318500
     75 H34         -3.4950    -2.1910     1.9640 h1         1 3JJ       0.068200
     76 H35         -2.8060    -0.6330     2.4690 h1         1 3JJ       0.068200
     77 H36         -5.5280    -2.2800     0.5270 ha         1 3JJ       0.117000
     78 H37         -7.6190    -1.1360    -0.1530 ha         1 3JJ       0.119500
     79 H38         -3.8820     1.5030     1.8190 ha         1 3JJ       0.117000
     80 H39         -5.9770     2.6410     1.1510 ha         1 3JJ       0.119500
     81 H40        -11.4610     2.4410    -0.5170 h5         1 3JJ       0.053100
     82 H41         -6.5950     3.9930    -0.8260 hc         1 3JJ       0.051700
     83 H42         -6.2600     2.5190    -1.7540 hc         1 3JJ       0.051700
     84 H43         -7.3390     3.7530    -2.4140 hc         1 3JJ       0.051700
@<TRIPOS>BOND
     1     1     2 1   
     2     1    42 1   
     3     1    43 1   
     4     1    44 1   
     5     2     3 2   
     6     2     4 1   
     7     4     5 1   
     8     4    45 1   
     9     5     6 1   
    10     5    10 1   
    11     5    46 1   
    12     6     7 1   
    13     6     8 1   
    14     6     9 1   
    15     7    47 1   
    16     7    48 1   
    17     7    49 1   
    18     8    50 1   
    19     8    51 1   
    20     8    52 1   
    21     9    53 1   
    22     9    54 1   
    23     9    55 1   
    24    10    11 2   
    25    10    12 1   
    26    12    13 1   
    27    12    56 1   
    28    13    14 1   
    29    13    18 1   
    30    13    57 1   
    31    14    15 1   
    32    14    16 1   
    33    14    17 1   
    34    15    58 1   
    35    15    59 1   
    36    15    60 1   
    37    16    61 1   
    38    16    62 1   
    39    16    63 1   
    40    17    64 1   
    41    17    65 1   
    42    17    66 1   
    43    18    19 2   
    44    18    20 1   
    45    20    21 1   
    46    20    25 1   
    47    21    22 1   
    48    21    67 1   
    49    21    68 1   
    50    22    23 1   
    51    22    24 1   
    52    22    69 1   
    53    23    70 1   
    54    24    25 1   
    55    24    71 1   
    56    24    72 1   
    57    25    26 1   
    58    25    73 1   
    59    26    27 2   
    60    26    28 1   
    61    28    29 1   
    62    28    74 1   
    63    29    30 1   
    64    29    75 1   
    65    29    76 1   
    66    30    31 ar  
    67    30    33 ar  
    68    31    32 ar  
    69    31    77 1   
    70    32    35 ar  
    71    32    78 1   
    72    33    34 ar  
    73    33    79 1   
    74    34    35 ar  
    75    34    80 1   
    76    35    36 1   
    77    36    37 1   
    78    36    40 2   
    79    37    38 1   
    80    38    39 2   
    81    38    81 1   
    82    39    40 1   
    83    40    41 1   
    84    41    82 1   
    85    41    83 1   
    86    41    84 1   
@<TRIPOS>SUBSTRUCTURE
     1 3JJ         1 TEMP              0 ****  ****    0 ROOT
