@<TRIPOS>MOLECULE
3JJ
   84    86     1     0     0
SMALL
abcg2


@<TRIPOS>ATOM
      1 CAD          9.6820     1.2530     0.8060 c3         1 3JJ      -0.179100
      2 CAA          8.2120     1.5390     0.9870 c          1 3JJ       0.604100
      3 OAC          7.7890     2.1480     1.9600 o          1 3JJ      -0.610100
      4 N            7.4220     1.0960    -0.0100 ns         1 3JJ      -0.498900
      5 CA           5.9900     1.2570    -0.0460 c3         1 3JJ       0.038700
      6 CB           5.5290     2.2810    -1.1240 c3         1 3JJ      -0.050000
      7 CG1          6.0800     3.6560    -0.7410 c3         1 3JJ      -0.087767
      8 CBO          6.0320     1.9130    -2.5200 c3         1 3JJ      -0.087767
      9 CG2          4.0000     2.3590    -1.1470 c3         1 3JJ      -0.087767
     10 C            5.3640    -0.1210    -0.2440 c          1 3JJ       0.594100
     11 O            5.8380    -0.9270    -1.0310 o          1 3JJ      -0.622100
     12 NAH          4.2760    -0.3610     0.5050 ns         1 3JJ      -0.486900
     13 CAI          3.4310    -1.5220     0.3480 c3         1 3JJ       0.045700
     14 CAJ          3.4850    -2.4700     1.5820 c3         1 3JJ      -0.043000
     15 CAL          4.9410    -2.8870     1.7960 c3         1 3JJ      -0.090100
     16 CAM          2.9690    -1.7990     2.8550 c3         1 3JJ      -0.090100
     17 CAK          2.6500    -3.7210     1.3020 c3         1 3JJ      -0.090100
     18 CAO          2.0220    -1.0090     0.0590 c          1 3JJ       0.600100
     19 OAP          1.5900    -0.0350     0.6640 o          1 3JJ      -0.618100
     20 NAQ          1.2730    -1.6390    -0.8560 n          1 3JJ      -0.388800
     21 CAU          1.6540    -2.7020    -1.7770 c5         1 3JJ       0.069000
     22 CAT          0.6180    -2.5820    -2.8900 c5         1 3JJ       0.153300
     23 OAX          0.9230    -1.5460    -3.7930 oh         1 3JJ      -0.653000
     24 CAS         -0.6250    -2.1750    -2.1160 c5         1 3JJ      -0.082400
     25 CAR         -0.0880    -1.1820    -1.0790 c5         1 3JJ       0.030700
     26 CAV         -0.9040    -1.2340     0.2070 c          1 3JJ       0.606100
     27 OAW         -0.8170    -2.1770     0.9770 o          1 3JJ      -0.601100
     28 NAY         -1.7600    -0.2130     0.3580 ns         1 3JJ      -0.493900
     29 CAZ         -2.6690    -0.0730     1.4700 c3         1 3JJ       0.142300
     30 CBA         -4.0840     0.1980     1.0270 ca         1 3JJ      -0.101300
     31 CBF         -4.6530    -0.4900    -0.0410 ca         1 3JJ      -0.100000
     32 CBE         -5.9640    -0.2550    -0.4180 ca         1 3JJ      -0.096500
     33 CBB         -4.8630     1.1260     1.7080 ca         1 3JJ      -0.100000
     34 CBC         -6.1810     1.3570     1.3420 ca         1 3JJ      -0.096500
     35 CBD         -6.7500     0.6750     0.2670 ca         1 3JJ      -0.004000
     36 CBG         -8.1390     0.9180    -0.1260 cc         1 3JJ      -0.186000
     37 SBK         -9.1900    -0.3930    -0.5230 ss         1 3JJ      -0.027400
     38 CBJ        -10.4510     0.7270    -0.8140 cc         1 3JJ       0.413300
     39 NBI        -10.1300     1.9660    -0.6330 nd         1 3JJ      -0.637000
     40 CBH         -8.8240     2.0990    -0.2440 cd         1 3JJ       0.301300
     41 CBL         -8.2750     3.4680    -0.0190 c3         1 3JJ      -0.122400
     42 H1          10.0980     0.8680     1.7360 hc         1 3JJ       0.061033
     43 H2           9.8940     0.5450     0.0070 hc         1 3JJ       0.061033
     44 H3          10.2010     2.1860     0.5790 hc         1 3JJ       0.061033
     45 H4           7.8430     0.5610    -0.7520 hn         1 3JJ       0.328500
     46 H5           5.6910     1.6550     0.9260 h1         1 3JJ       0.090700
     47 H6           7.1710     3.6770    -0.7490 hc         1 3JJ       0.039256
     48 H7           5.7350     4.4060    -1.4560 hc         1 3JJ       0.039256
     49 H8           5.7430     3.9620     0.2510 hc         1 3JJ       0.039256
     50 H9           5.6400     0.9580    -2.8650 hc         1 3JJ       0.039256
     51 H10          5.7150     2.6770    -3.2330 hc         1 3JJ       0.039256
     52 H11          7.1220     1.8700    -2.5640 hc         1 3JJ       0.039256
     53 H12          3.5870     2.5970    -0.1640 hc         1 3JJ       0.039256
     54 H13          3.6840     3.1480    -1.8320 hc         1 3JJ       0.039256
     55 H14          3.5360     1.4330    -1.4880 hc         1 3JJ       0.039256
     56 H15          3.9320     0.3730     1.1050 hn         1 3JJ       0.336500
     57 H16          3.8240    -2.0810    -0.5010 h1         1 3JJ       0.084700
     58 H17          5.5650    -2.0420     2.0890 hc         1 3JJ       0.041144
     59 H18          5.0010    -3.6280     2.5950 hc         1 3JJ       0.041144
     60 H19          5.3720    -3.3310     0.8970 hc         1 3JJ       0.041144
     61 H20          1.9120    -1.5420     2.7920 hc         1 3JJ       0.041144
     62 H21          3.0890    -2.4840     3.6970 hc         1 3JJ       0.041144
     63 H22          3.5260    -0.8920     3.1000 hc         1 3JJ       0.041144
     64 H23          3.0130    -4.2550     0.4210 hc         1 3JJ       0.041144
     65 H24          2.7210    -4.4050     2.1480 hc         1 3JJ       0.041144
     66 H25          1.5940    -3.4910     1.1540 hc         1 3JJ       0.041144
     67 H26          2.6710    -2.5780    -2.1490 h1         1 3JJ       0.061200
     68 H27          1.5860    -3.6840    -1.3040 h1         1 3JJ       0.061200
     69 H28          0.4890    -3.5420    -3.4020 h1         1 3JJ       0.054700
     70 H29          1.7650    -1.7450    -4.2140 ho         1 3JJ       0.449000
     71 H30         -1.3990    -1.7400    -2.7470 hc         1 3JJ       0.074200
     72 H31         -1.0390    -3.0550    -1.6210 hc         1 3JJ       0.074200
     73 H32         -0.0830    -0.1660    -1.4860 h1         1 3JJ       0.076700
     74 H33         -1.7060     0.5570    -0.2890 hn         1 3JJ       0.318500
     75 H34         -2.6310    -0.9950     2.0500 h1         1 3JJ       0.068200
     76 H35         -2.3320     0.7280     2.1330 h1         1 3JJ       0.068200
     77 H36         -4.0660    -1.2130    -0.5950 ha         1 3JJ       0.117000
     78 H37         -6.3750    -0.7910    -1.2650 ha         1 3JJ       0.119500
     79 H38         -4.4430     1.6750     2.5420 ha         1 3JJ       0.117000
     80 H39         -6.7730     2.0640     1.9090 ha         1 3JJ       0.119500
     81 H40        -11.4320     0.3950    -1.1260 h5         1 3JJ       0.053100
     82 H41         -8.5060     3.8310     0.9850 hc         1 3JJ       0.051700
     83 H42         -7.1930     3.4970    -0.1390 hc         1 3JJ       0.051700
     84 H43         -8.7150     4.1690    -0.7270 hc         1 3JJ       0.051700
@<TRIPOS>BOND
     1     1     2 1   
     2     1    42 1   
     3     1    43 1   
     4     1    44 1   
     5     2     3 2   
     6     2     4 1   
     7     4     5 1   
     8     4    45 1   
     9     5     6 1   
    10     5    10 1   
    11     5    46 1   
    12     6     7 1   
    13     6     8 1   
    14     6     9 1   
    15     7    47 1   
    16     7    48 1   
    17     7    49 1   
    18     8    50 1   
    19     8    51 1   
    20     8    52 1   
    21     9    53 1   
    22     9    54 1   
    23     9    55 1   
    24    10    11 2   
    25    10    12 1   
    26    12    13 1   
    27    12    56 1   
    28    13    14 1   
    29    13    18 1   
    30    13    57 1   
    31    14    15 1   
    32    14    16 1   
    33    14    17 1   
    34    15    58 1   
    35    15    59 1   
    36    15    60 1   
    37    16    61 1   
    38    16    62 1   
    39    16    63 1   
    40    17    64 1   
    41    17    65 1   
    42    17    66 1   
    43    18    19 2   
    44    18    20 1   
    45    20    21 1   
    46    20    25 1   
    47    21    22 1   
    48    21    67 1   
    49    21    68 1   
    50    22    23 1   
    51    22    24 1   
    52    22    69 1   
    53    23    70 1   
    54    24    25 1   
    55    24    71 1   
    56    24    72 1   
    57    25    26 1   
    58    25    73 1   
    59    26    27 2   
    60    26    28 1   
    61    28    29 1   
    62    28    74 1   
    63    29    30 1   
    64    29    75 1   
    65    29    76 1   
    66    30    31 ar  
    67    30    33 ar  
    68    31    32 ar  
    69    31    77 1   
    70    32    35 ar  
    71    32    78 1   
    72    33    34 ar  
    73    33    79 1   
    74    34    35 ar  
    75    34    80 1   
    76    35    36 1   
    77    36    37 1   
    78    36    40 2   
    79    37    38 1   
    80    38    39 2   
    81    38    81 1   
    82    39    40 1   
    83    40    41 1   
    84    41    82 1   
    85    41    83 1   
    86    41    84 1   
@<TRIPOS>SUBSTRUCTURE
     1 3JJ         1 TEMP              0 ****  ****    0 ROOT
