@<TRIPOS>MOLECULE
3JK
   58    60     1     0     0
SMALL
No Charge or Current Charge


@<TRIPOS>ATOM
      1 CAB         -6.0270    -2.6200     0.1810 c3         1 3JK      -0.087433
      2 CBC         -6.4440    -1.4230    -0.7150 c3         1 3JK      -0.027000
      3 CAC         -6.2030    -1.7660    -2.2110 c3         1 3JK      -0.087433
      4 CAD         -7.9630    -1.1720    -0.5170 c3         1 3JK      -0.087433
      5 CAN         -5.6820    -0.1210    -0.2990 c3         1 3JK      -0.141400
      6 CAT         -4.1310    -0.1000    -0.3020 c          1 3JK       0.620100
      7 OAE         -3.4570    -0.9690    -0.8410 o          1 3JK      -0.604100
      8 N           -3.4920     0.9720     0.3590 n          1 3JK      -0.403800
      9 CD2         -4.1780     2.2340     0.7360 c5         1 3JK       0.072000
     10 CG          -2.9950     3.2370     0.9070 c5         1 3JK       0.154300
     11 OD1         -2.6140     3.8500    -0.3300 oh         1 3JK      -0.652000
     12 CB          -1.8790     2.3040     1.4380 c5         1 3JK      -0.084400
     13 CA          -2.0130     1.0470     0.5240 c5         1 3JK       0.037700
     14 C           -1.3540    -0.1660     1.2570 c          1 3JK       0.605100
     15 O           -1.8950    -0.9780     1.9990 o          1 3JK      -0.596100
     16 NAR         -0.0110    -0.2090     0.9540 ns         1 3JK      -0.497900
     17 CAM          0.9130    -1.2140     1.4720 c3         1 3JK       0.143300
     18 CAV          2.3290    -0.9530     0.9850 ca         1 3JK      -0.095300
     19 CAI          3.1910    -0.1190     1.7210 ca         1 3JK      -0.103500
     20 CAK          4.4980     0.1260     1.2680 ca         1 3JK      -0.088000
     21 CAH          2.7900    -1.5390    -0.2080 ca         1 3JK      -0.103500
     22 CAJ          4.0980    -1.2930    -0.6620 ca         1 3JK      -0.088000
     23 CAX          4.9620    -0.4490     0.0680 ca         1 3JK      -0.116500
     24 CAY          6.3320    -0.1840    -0.3820 cc         1 3JK       0.155500
     25 OAS          7.3620    -0.0480     0.4870 os         1 3JK      -0.257000
     26 CAL          8.4190     0.2250    -0.3360 cc         1 3JK       0.435900
     27 NAQ          8.1110     0.2940    -1.6310 nd         1 3JK      -0.681000
     28 CAW          6.7540     0.0410    -1.6700 cd         1 3JK       0.258300
     29 CAA          5.9800     0.0730    -2.9610 c3         1 3JK      -0.115400
     30 H1          -6.6320    -3.5060    -0.0460 hc         1 3JK       0.037144
     31 H2          -4.9760    -2.8930     0.0320 hc         1 3JK       0.037144
     32 H3          -6.1670    -2.3800     1.2420 hc         1 3JK       0.037144
     33 H4          -6.8270    -2.6130    -2.5210 hc         1 3JK       0.037144
     34 H5          -6.4520    -0.9130    -2.8530 hc         1 3JK       0.037144
     35 H6          -5.1610    -2.0440    -2.4050 hc         1 3JK       0.037144
     36 H7          -8.1910    -0.9380     0.5300 hc         1 3JK       0.037144
     37 H8          -8.3070    -0.3320    -1.1340 hc         1 3JK       0.037144
     38 H9          -8.5490    -2.0560    -0.7970 hc         1 3JK       0.037144
     39 H10         -6.0100     0.7260    -0.9120 hc         1 3JK       0.054200
     40 H11         -6.0070     0.2100     0.6940 hc         1 3JK       0.054200
     41 H12         -4.8880     2.5720    -0.0300 h1         1 3JK       0.053700
     42 H13         -4.7240     2.1050     1.6800 h1         1 3JK       0.053700
     43 H14         -3.2430     4.0140     1.6440 h1         1 3JK       0.052700
     44 H15         -3.3500     4.4450    -0.5950 ho         1 3JK       0.445000
     45 H16         -0.8840     2.7600     1.3860 hc         1 3JK       0.071700
     46 H17         -2.0630     2.0530     2.4900 hc         1 3JK       0.071700
     47 H18         -1.5270     1.1970    -0.4500 h1         1 3JK       0.075700
     48 H19          0.3520     0.5040     0.3340 hn         1 3JK       0.316500
     49 H20          0.8870    -1.1940     2.5700 h1         1 3JK       0.069700
     50 H21          0.5810    -2.2080     1.1430 h1         1 3JK       0.069700
     51 H22          2.8480     0.3410     2.6450 ha         1 3JK       0.117500
     52 H23          5.1510     0.7740     1.8500 ha         1 3JK       0.121500
     53 H24          2.1360    -2.1890    -0.7850 ha         1 3JK       0.117500
     54 H25          4.4370    -1.7750    -1.5750 ha         1 3JK       0.121500
     55 H26          9.3950     0.3670     0.1150 h5         1 3JK       0.083100
     56 H27          5.8820    -0.9330    -3.3840 hc         1 3JK       0.051367
     57 H28          4.9740     0.4800    -2.8090 hc         1 3JK       0.051367
     58 H29          6.4810     0.7020    -3.7070 hc         1 3JK       0.051367
@<TRIPOS>BOND
     1     1     2 1   
     2     1    30 1   
     3     1    31 1   
     4     1    32 1   
     5     2     3 1   
     6     2     4 1   
     7     2     5 1   
     8     3    33 1   
     9     3    34 1   
    10     3    35 1   
    11     4    36 1   
    12     4    37 1   
    13     4    38 1   
    14     5     6 1   
    15     5    39 1   
    16     5    40 1   
    17     6     7 2   
    18     6     8 1   
    19     8     9 1   
    20     8    13 1   
    21     9    10 1   
    22     9    41 1   
    23     9    42 1   
    24    10    11 1   
    25    10    12 1   
    26    10    43 1   
    27    11    44 1   
    28    12    13 1   
    29    12    45 1   
    30    12    46 1   
    31    13    14 1   
    32    13    47 1   
    33    14    15 2   
    34    14    16 1   
    35    16    17 1   
    36    16    48 1   
    37    17    18 1   
    38    17    49 1   
    39    17    50 1   
    40    18    19 ar  
    41    18    21 ar  
    42    19    20 ar  
    43    19    51 1   
    44    20    23 ar  
    45    20    52 1   
    46    21    22 ar  
    47    21    53 1   
    48    22    23 ar  
    49    22    54 1   
    50    23    24 1   
    51    24    25 1   
    52    24    28 2   
    53    25    26 1   
    54    26    27 2   
    55    26    55 1   
    56    27    28 1   
    57    28    29 1   
    58    29    56 1   
    59    29    57 1   
    60    29    58 1   
@<TRIPOS>SUBSTRUCTURE
     1 3JK         1 TEMP              0 ****  ****    0 ROOT
