@<TRIPOS>MOLECULE
3JK
   58    60     1     0     0
SMALL
bcc


@<TRIPOS>ATOM
      1 CAB         -5.8040    -2.5820     0.6010 c3         1 3JK      -0.087433
      2 CBC         -6.4740    -1.3670    -0.0450 c3         1 3JK      -0.027000
      3 CAC         -6.7130    -1.6210    -1.5340 c3         1 3JK      -0.087433
      4 CAD         -7.8320    -1.1450     0.6300 c3         1 3JK      -0.087433
      5 CAN         -5.6550    -0.0910     0.2000 c3         1 3JK      -0.141400
      6 CAT         -4.2270    -0.0470    -0.2990 c          1 3JK       0.687100
      7 OAE         -3.7440    -0.8510    -1.0880 o          1 3JK      -0.604100
      8 N           -3.4790     0.9710     0.1700 n          1 3JK      -0.470800
      9 CD2         -3.9050     2.0410     1.0570 c5         1 3JK       0.072000
     10 CG          -2.8660     3.1280     0.8030 c5         1 3JK       0.131100
     11 OD1         -3.1300     3.8420    -0.3830 oh         1 3JK      -0.589800
     12 CB          -1.6050     2.3110     0.5790 c5         1 3JK      -0.084400
     13 CA          -2.0930     1.0990    -0.2290 c5         1 3JK       0.037700
     14 C           -1.2930    -0.1440     0.1370 c          1 3JK       0.672100
     15 O           -1.4840    -0.7390     1.1850 o          1 3JK      -0.596100
     16 NAR         -0.3300    -0.4590    -0.7440 ns         1 3JK      -0.564900
     17 CAM          0.6110    -1.5360    -0.5690 c3         1 3JK       0.143300
     18 CAV          2.0310    -1.0600    -0.3850 ca         1 3JK      -0.095300
     19 CAI          2.3300     0.0610     0.3850 ca         1 3JK      -0.121500
     20 CAK          3.6380     0.4750     0.5650 ca         1 3JK      -0.106000
     21 CAH          3.0820    -1.7620    -0.9630 ca         1 3JK      -0.121500
     22 CAJ          4.3960    -1.3620    -0.7790 ca         1 3JK      -0.106000
     23 CAX          4.6950    -0.2280    -0.0230 ca         1 3JK      -0.116500
     24 CAY          6.0700     0.2110     0.1370 cc         1 3JK       0.199900
     25 OAS          6.3810     0.9590     1.2320 os         1 3JK      -0.345800
     26 CAL          7.6800     1.2330     1.1190 cc         1 3JK       0.480300
     27 NAQ          8.2270     0.7410     0.0650 nd         1 3JK      -0.681000
     28 CAW          7.2100     0.0780    -0.5940 cd         1 3JK       0.258300
     29 CAA          7.4400    -0.6060    -1.8940 c3         1 3JK      -0.115400
     30 H1          -6.4610    -3.4530     0.5430 hc         1 3JK       0.037144
     31 H2          -4.8670    -2.8380     0.1100 hc         1 3JK       0.037144
     32 H3          -5.5930    -2.4010     1.6570 hc         1 3JK       0.037144
     33 H4          -7.4110    -2.4500    -1.6690 hc         1 3JK       0.037144
     34 H5          -7.1510    -0.7440    -2.0170 hc         1 3JK       0.037144
     35 H6          -5.7930    -1.8700    -2.0580 hc         1 3JK       0.037144
     36 H7          -7.7190    -0.9580     1.7010 hc         1 3JK       0.037144
     37 H8          -8.3570    -0.2890     0.1990 hc         1 3JK       0.037144
     38 H9          -8.4700    -2.0220     0.5110 hc         1 3JK       0.037144
     39 H10         -6.1830     0.7590    -0.2480 hc         1 3JK       0.054200
     40 H11         -5.6520     0.1110     1.2770 hc         1 3JK       0.054200
     41 H12         -4.9170     2.3820     0.8340 h1         1 3JK       0.053700
     42 H13         -3.8820     1.7260     2.1060 h1         1 3JK       0.053700
     43 H14         -2.7790     3.7960     1.6660 h1         1 3JK       0.052700
     44 H15         -3.9830     4.2790    -0.2950 ho         1 3JK       0.406000
     45 H16         -0.8220     2.8680     0.0640 hc         1 3JK       0.071700
     46 H17         -1.2130     1.9940     1.5480 hc         1 3JK       0.071700
     47 H18         -2.0180     1.2960    -1.3030 h1         1 3JK       0.075700
     48 H19         -0.2630     0.0780    -1.5940 hn         1 3JK       0.316500
     49 H20          0.2970    -2.1170     0.2980 h1         1 3JK       0.069700
     50 H21          0.5590    -2.2060    -1.4290 h1         1 3JK       0.069700
     51 H22          1.5340     0.6320     0.8480 ha         1 3JK       0.135500
     52 H23          3.8310     1.3600     1.1570 ha         1 3JK       0.139500
     53 H24          2.8770    -2.6410    -1.5620 ha         1 3JK       0.135500
     54 H25          5.1910    -1.9500    -1.2200 ha         1 3JK       0.139500
     55 H26          8.1380     1.8240     1.8970 h5         1 3JK       0.083100
     56 H27          7.6930    -1.6600    -1.7580 hc         1 3JK       0.051367
     57 H28          6.5580    -0.5620    -2.5310 hc         1 3JK       0.051367
     58 H29          8.2660    -0.1360    -2.4250 hc         1 3JK       0.051367
@<TRIPOS>BOND
     1     1     2 1   
     2     1    30 1   
     3     1    31 1   
     4     1    32 1   
     5     2     3 1   
     6     2     4 1   
     7     2     5 1   
     8     3    33 1   
     9     3    34 1   
    10     3    35 1   
    11     4    36 1   
    12     4    37 1   
    13     4    38 1   
    14     5     6 1   
    15     5    39 1   
    16     5    40 1   
    17     6     7 2   
    18     6     8 1   
    19     8     9 1   
    20     8    13 1   
    21     9    10 1   
    22     9    41 1   
    23     9    42 1   
    24    10    11 1   
    25    10    12 1   
    26    10    43 1   
    27    11    44 1   
    28    12    13 1   
    29    12    45 1   
    30    12    46 1   
    31    13    14 1   
    32    13    47 1   
    33    14    15 2   
    34    14    16 1   
    35    16    17 1   
    36    16    48 1   
    37    17    18 1   
    38    17    49 1   
    39    17    50 1   
    40    18    19 ar  
    41    18    21 ar  
    42    19    20 ar  
    43    19    51 1   
    44    20    23 ar  
    45    20    52 1   
    46    21    22 ar  
    47    21    53 1   
    48    22    23 ar  
    49    22    54 1   
    50    23    24 1   
    51    24    25 1   
    52    24    28 2   
    53    25    26 1   
    54    26    27 2   
    55    26    55 1   
    56    27    28 1   
    57    28    29 1   
    58    29    56 1   
    59    29    57 1   
    60    29    58 1   
@<TRIPOS>SUBSTRUCTURE
     1 3JK         1 TEMP              0 ****  ****    0 ROOT
