@<TRIPOS>MOLECULE
3JL
   27    27     1     0     0
SMALL
No Charge or Current Charge


@<TRIPOS>ATOM
      1 C8          -0.8600    -1.3830     0.6370 c          1 3JL       0.757600
      2 C4          -0.2870     1.1110     0.6450 ca         1 3JL      -0.084300
      3 C5          -1.2160     0.0680     0.3760 ca         1 3JL      -0.065600
      4 C2          -1.8880     2.7550    -0.1890 ca         1 3JL      -0.198000
      5 C6          -2.4830     0.3870    -0.1840 ca         1 3JL      -0.127600
      6 O12          5.0920     0.9300    -1.0630 o          1 3JL      -0.770000
      7 O15          4.6740    -1.1730    -0.8930 o          1 3JL      -0.770000
      8 C11          4.5360    -0.0160    -0.5260 c          1 3JL       0.715000
      9 C10          3.5680     0.2710     0.6400 c3         1 3JL      -0.189400
     10 C9           2.1370     0.5160     0.0990 c3         1 3JL      -0.059400
     11 C3          -0.6380     2.4460     0.3600 ca         1 3JL      -0.152000
     12 C7          -2.8050     1.7320    -0.4630 ca         1 3JL      -0.118000
     13 O10         -0.6100    -2.0970    -0.3270 o          1 3JL      -0.743000
     14 O9          -0.8250    -1.7810     1.7950 o          1 3JL      -0.743000
     15 C12         -3.4950    -0.6930    -0.4870 c          1 3JL       0.716600
     16 O14         -3.8950    -1.3910     0.4340 o          1 3JL      -0.744000
     17 O13         -3.9490    -0.7560    -1.6210 o          1 3JL      -0.744000
     18 H1          -2.1460     3.7880    -0.4060 ha         1 3JL       0.043000
     19 H3           3.4920    -0.6000     1.3030 hc         1 3JL       0.003700
     20 H4           3.8530     1.1950     1.1580 hc         1 3JL       0.003700
     21 H5           2.1590     1.3480    -0.6160 hc         1 3JL       0.053200
     22 H6           1.8050    -0.3690    -0.4580 hc         1 3JL       0.053200
     23 H7           1.4610     1.7090     1.7700 hc         1 3JL       0.022200
     24 H8           1.0890     0.0140     1.9320 hc         1 3JL       0.022200
     25 H9           0.0680     3.2490     0.5580 ha         1 3JL       0.056000
     26 H10         -3.7740     1.9790    -0.8900 ha         1 3JL       0.088000
     27 C1           1.1090     0.8350     1.2070 c3         1 3JL      -0.023100
@<TRIPOS>BOND
     1     1     3 1   
     2     1    13 1   
     3     1    14 1   
     4     2     3 ar  
     5     2    11 ar  
     6     2    27 1   
     7     3     5 ar  
     8     4    11 ar  
     9     4    12 ar  
    10     4    18 1   
    11     5    12 ar  
    12     5    15 1   
    13     6     8 1   
    14     7     8 1   
    15     8     9 1   
    16     9    10 1   
    17     9    19 1   
    18     9    20 1   
    19    10    21 1   
    20    10    22 1   
    21    10    27 1   
    22    11    25 1   
    23    12    26 1   
    24    15    16 1   
    25    15    17 1   
    26    23    27 1   
    27    24    27 1   
@<TRIPOS>SUBSTRUCTURE
     1 3JL         1 TEMP              0 ****  ****    0 ROOT
