@<TRIPOS>MOLECULE
3JL
   27    27     1     0     0
SMALL
bcc


@<TRIPOS>ATOM
      1 C8          -0.8600    -1.3570     0.6680 c          1 3JL       0.968200
      2 C4          -0.3000     1.0930     0.6780 ca         1 3JL      -0.084300
      3 C5          -1.2370     0.0900     0.3810 ca         1 3JL      -0.065600
      4 C2          -1.8290     2.7740    -0.1530 ca         1 3JL      -0.216000
      5 C6          -2.4590     0.4390    -0.2100 ca         1 3JL      -0.127600
      6 O12          4.2260     0.1740    -1.6980 o          1 3JL      -0.875300
      7 O15          5.6590    -0.4110    -0.0990 o          1 3JL      -0.875300
      8 C11          4.5380    -0.0400    -0.5100 c          1 3JL       0.925600
      9 C10          3.4640     0.1820     0.5700 c3         1 3JL      -0.189400
     10 C9           2.0700     0.5120     0.0650 c3         1 3JL      -0.059400
     11 C3          -0.6130     2.4230     0.4140 ca         1 3JL      -0.170000
     12 C7          -2.7370     1.7800    -0.4750 ca         1 3JL      -0.136000
     13 O10         -0.4280    -2.0110    -0.2990 o          1 3JL      -0.848300
     14 O9          -0.9330    -1.7270     1.8550 o          1 3JL      -0.848300
     15 C12         -3.5170    -0.5970    -0.5660 c          1 3JL       0.927200
     16 O14         -3.4840    -1.6780     0.0500 o          1 3JL      -0.849300
     17 O13         -4.3470    -0.2670    -1.4390 o          1 3JL      -0.849300
     18 H1          -2.0630     3.8140    -0.3450 ha         1 3JL       0.061000
     19 H3           3.4270    -0.7100     1.2080 hc         1 3JL       0.003700
     20 H4           3.8150     0.9840     1.2320 hc         1 3JL       0.003700
     21 H5           2.1060     1.3930    -0.5810 hc         1 3JL       0.053200
     22 H6           1.6880    -0.3050    -0.5500 hc         1 3JL       0.053200
     23 H7           1.4380     1.6090     1.8050 hc         1 3JL       0.022200
     24 H8           1.0420    -0.0950     1.8660 hc         1 3JL       0.022200
     25 H9           0.1120     3.1940     0.6540 ha         1 3JL       0.074000
     26 H10         -3.6820     2.0410    -0.9330 ha         1 3JL       0.106000
     27 C1           1.0760     0.7700     1.2020 c3         1 3JL      -0.023100
@<TRIPOS>BOND
     1     1     3 1   
     2     1    13 1   
     3     1    14 1   
     4     2     3 ar  
     5     2    11 ar  
     6     2    27 1   
     7     3     5 ar  
     8     4    11 ar  
     9     4    12 ar  
    10     4    18 1   
    11     5    12 ar  
    12     5    15 1   
    13     6     8 1   
    14     7     8 1   
    15     8     9 1   
    16     9    10 1   
    17     9    19 1   
    18     9    20 1   
    19    10    21 1   
    20    10    22 1   
    21    10    27 1   
    22    11    25 1   
    23    12    26 1   
    24    15    16 1   
    25    15    17 1   
    26    23    27 1   
    27    24    27 1   
@<TRIPOS>SUBSTRUCTURE
     1 3JL         1 TEMP              0 ****  ****    0 ROOT
