@<TRIPOS>MOLECULE
3JM
   24    24     1     0     0
SMALL
No Charge or Current Charge


@<TRIPOS>ATOM
      1 C7           2.3800     1.8470     0.1970 ca         1 3JM      -0.122000
      2 O19         -4.3590    -1.0160     0.1810 o          1 3JM      -0.782500
      3 C15         -4.0330     0.1610     0.1720 c          1 3JM       0.718000
      4 O16         -4.7790     1.0590    -0.1870 o          1 3JM      -0.782500
      5 C14         -2.5970     0.5260     0.5810 c3         1 3JM      -0.194400
      6 C13         -1.6690     0.4990    -0.6570 c3         1 3JM      -0.002100
      7 C4          -0.2350     0.9290    -0.3310 ca         1 3JM      -0.081300
      8 C3           0.8220    -0.0090    -0.1640 ca         1 3JM      -0.065600
      9 C10          0.5760    -1.4980    -0.3050 c          1 3JM       0.763600
     10 O12         -0.0250    -2.0830     0.5870 o          1 3JM      -0.746500
     11 O11          0.9520    -2.0470    -1.3340 o          1 3JM      -0.746500
     12 C5           0.0350     2.3080    -0.2210 ca         1 3JM      -0.155000
     13 C6           1.3330     2.7640     0.0420 ca         1 3JM      -0.205000
     14 C2           2.1380     0.4610     0.0990 ca         1 3JM      -0.137600
     15 C1           3.2880    -0.5040     0.2740 c          1 3JM       0.709600
     16 O8           4.2790    -0.3530    -0.4260 o          1 3JM      -0.745500
     17 O9           3.2230    -1.3320     1.1710 o          1 3JM      -0.745500
     18 H1           3.3860     2.2090     0.4000 ha         1 3JM       0.088000
     19 H3          -2.5610     1.5530     0.9630 hc         1 3JM       0.033200
     20 H4          -2.1930    -0.2180     1.2770 hc         1 3JM       0.033200
     21 H5          -1.6970    -0.4980    -1.1100 hc         1 3JM       0.035200
     22 H6          -2.0820     1.1730    -1.4180 hc         1 3JM       0.035200
     23 H8          -0.7670     3.0300    -0.3480 ha         1 3JM       0.057000
     24 H9           1.5280     3.8300     0.1220 ha         1 3JM       0.039000
@<TRIPOS>BOND
     1     1    13 ar  
     2     1    14 ar  
     3     1    18 1   
     4     2     3 1   
     5     3     4 1   
     6     3     5 1   
     7     5     6 1   
     8     5    19 1   
     9     5    20 1   
    10     6     7 1   
    11     6    21 1   
    12     6    22 1   
    13     7     8 ar  
    14     7    12 ar  
    15     8     9 1   
    16     8    14 ar  
    17     9    10 1   
    18     9    11 1   
    19    12    13 ar  
    20    12    23 1   
    21    13    24 1   
    22    14    15 1   
    23    15    16 1   
    24    15    17 1   
@<TRIPOS>SUBSTRUCTURE
     1 3JM         1 TEMP              0 ****  ****    0 ROOT
