@<TRIPOS>MOLECULE
3JM
   24    24     1     0     0
SMALL
bcc


@<TRIPOS>ATOM
      1 C7           2.3420     1.8460     0.2460 ca         1 3JM      -0.140000
      2 O19         -4.6100    -0.1900     1.3540 o          1 3JM      -0.887800
      3 C15         -3.9470     0.0250     0.3160 c          1 3JM       0.928600
      4 O16         -4.3800    -0.0110    -0.8530 o          1 3JM      -0.887800
      5 C14         -2.4640     0.3680     0.5300 c3         1 3JM      -0.194400
      6 C13         -1.6410     0.5920    -0.7360 c3         1 3JM      -0.002100
      7 C4          -0.2220     0.9920    -0.4200 ca         1 3JM      -0.081300
      8 C3           0.8010     0.0470    -0.2330 ca         1 3JM      -0.065600
      9 C10          0.4460    -1.4190    -0.4390 c          1 3JM       0.974200
     10 O12         -0.0180    -2.0250     0.5450 o          1 3JM      -0.851800
     11 O11          0.5530    -1.8470    -1.6050 o          1 3JM      -0.851800
     12 C5           0.0620     2.3460    -0.2640 ca         1 3JM      -0.173000
     13 C6           1.3360     2.7800     0.0690 ca         1 3JM      -0.223000
     14 C2           2.0930     0.4810     0.0980 ca         1 3JM      -0.137600
     15 C1           3.2500    -0.4870     0.3100 c          1 3JM       0.920200
     16 O8           4.3680     0.0150     0.5520 o          1 3JM      -0.850800
     17 O9           2.9970    -1.7030     0.2280 o          1 3JM      -0.850800
     18 H1           3.3410     2.1690     0.5040 ha         1 3JM       0.106000
     19 H3          -2.4080     1.2610     1.1630 hc         1 3JM       0.033200
     20 H4          -1.9990    -0.4300     1.1150 hc         1 3JM       0.033200
     21 H5          -1.6590    -0.3060    -1.3550 hc         1 3JM       0.035200
     22 H6          -2.1060     1.3790    -1.3340 hc         1 3JM       0.035200
     23 H8          -0.7330     3.0710    -0.4090 ha         1 3JM       0.075000
     24 H9           1.5410     3.8370     0.1840 ha         1 3JM       0.057000
@<TRIPOS>BOND
     1     1    13 ar  
     2     1    14 ar  
     3     1    18 1   
     4     2     3 1   
     5     3     4 1   
     6     3     5 1   
     7     5     6 1   
     8     5    19 1   
     9     5    20 1   
    10     6     7 1   
    11     6    21 1   
    12     6    22 1   
    13     7     8 ar  
    14     7    12 ar  
    15     8     9 1   
    16     8    14 ar  
    17     9    10 1   
    18     9    11 1   
    19    12    13 ar  
    20    12    23 1   
    21    13    24 1   
    22    14    15 1   
    23    15    16 1   
    24    15    17 1   
@<TRIPOS>SUBSTRUCTURE
     1 3JM         1 TEMP              0 ****  ****    0 ROOT
