@<TRIPOS>MOLECULE
3JN
   25    25     1     0     0
SMALL
No Charge or Current Charge


@<TRIPOS>ATOM
      1 O15         -5.5300     1.0120    -0.6560 o          1 3JN      -0.762000
      2 C11         -5.0020     0.1830     0.0700 c          1 3JN       0.723000
      3 O12         -5.3180     0.0210     1.2400 o          1 3JN      -0.762000
      4 C10         -3.7610    -0.5750    -0.4650 c3         1 3JN      -0.162200
      5 C9          -2.4680     0.1880    -0.2080 c2         1 3JN      -0.213200
      6 C1          -1.2430    -0.1990    -0.6300 ce         1 3JN      -0.156200
      7 C4           0.0300     0.5460    -0.3760 ca         1 3JN      -0.060800
      8 C3          -0.0030     1.9500    -0.2390 ca         1 3JN      -0.141000
      9 C2           1.1690     2.6730     0.0210 ca         1 3JN      -0.202000
     10 C7           2.3930     2.0050     0.1470 ca         1 3JN      -0.114000
     11 C5           1.2750    -0.1350    -0.2640 ca         1 3JN      -0.058600
     12 C8           1.3460    -1.6460    -0.3690 c          1 3JN       0.762600
     13 O10          1.5070    -2.2880     0.6620 o          1 3JN      -0.744500
     14 O9           1.1940    -2.1670    -1.4680 o          1 3JN      -0.744500
     15 C6           2.4600     0.6040     0.0030 ca         1 3JN      -0.140600
     16 C12          3.7960    -0.0890     0.1370 c          1 3JN       0.711600
     17 O14          4.2050    -0.7490    -0.8070 o          1 3JN      -0.743000
     18 O13          4.4560     0.1220     1.1440 o          1 3JN      -0.743000
     19 H2          -3.6560    -1.5330     0.0590 hc         1 3JN       0.008200
     20 H3          -3.8370    -0.6890    -1.5530 hc         1 3JN       0.008200
     21 H4          -2.5930     1.1030     0.3740 ha         1 3JN       0.149000
     22 H5          -1.1460    -1.1270    -1.1930 ha         1 3JN       0.187000
     23 H6          -0.9390     2.4920    -0.3400 ha         1 3JN       0.064000
     24 H7           1.1270     3.7540     0.1250 ha         1 3JN       0.044000
     25 H8           3.2980     2.5740     0.3500 ha         1 3JN       0.091000
@<TRIPOS>BOND
     1     1     2 1   
     2     2     3 1   
     3     2     4 1   
     4     4     5 1   
     5     4    19 1   
     6     4    20 1   
     7     5     6 2   
     8     5    21 1   
     9     6     7 1   
    10     6    22 1   
    11     7     8 ar  
    12     7    11 ar  
    13     8     9 ar  
    14     8    23 1   
    15     9    10 ar  
    16     9    24 1   
    17    10    15 ar  
    18    10    25 1   
    19    11    12 1   
    20    11    15 ar  
    21    12    13 1   
    22    12    14 1   
    23    15    16 1   
    24    16    17 1   
    25    16    18 1   
@<TRIPOS>SUBSTRUCTURE
     1 3JN         1 TEMP              0 ****  ****    0 ROOT
