@<TRIPOS>MOLECULE
3JN
   25    25     1     0     0
SMALL
abcg2


@<TRIPOS>ATOM
      1 O15         -4.4280     0.2440     1.4630 o          1 3JN      -0.762000
      2 C11         -4.6680    -0.4610     0.4650 c          1 3JN       0.723000
      3 O12         -5.6190    -1.2560     0.3240 o          1 3JN      -0.762000
      4 C10         -3.7150    -0.3310    -0.7450 c3         1 3JN      -0.162200
      5 C9          -2.4480     0.4020    -0.4660 c2         1 3JN      -0.213200
      6 C1          -1.2260    -0.0870    -0.6880 ce         1 3JN      -0.156200
      7 C4           0.0370     0.6330    -0.4580 ca         1 3JN      -0.060800
      8 C3           0.0820     2.0220    -0.5810 ca         1 3JN      -0.141000
      9 C2           1.2570     2.7180    -0.3520 ca         1 3JN      -0.202000
     10 C7           2.4060     2.0220    -0.0160 ca         1 3JN      -0.114000
     11 C5           1.2110    -0.0700    -0.1220 ca         1 3JN      -0.058600
     12 C8           1.0870    -1.5810     0.0260 c          1 3JN       0.762600
     13 O10          0.7450    -1.9850     1.1530 o          1 3JN      -0.744500
     14 O9           1.2200    -2.2550    -1.0120 o          1 3JN      -0.744500
     15 C6           2.4010     0.6330     0.0990 ca         1 3JN      -0.140600
     16 C12          3.7070    -0.0670     0.4610 c          1 3JN       0.711600
     17 O14          3.6850    -1.3090     0.5350 o          1 3JN      -0.743000
     18 O13          4.7010     0.6640     0.6520 o          1 3JN      -0.743000
     19 H2          -3.5040    -1.3230    -1.1560 hc         1 3JN       0.008200
     20 H3          -4.2720     0.1980    -1.5290 hc         1 3JN       0.008200
     21 H4          -2.5560     1.4020    -0.0570 ha         1 3JN       0.149000
     22 H5          -1.1400    -1.1000    -1.0700 ha         1 3JN       0.187000
     23 H6          -0.8120     2.5610    -0.8720 ha         1 3JN       0.064000
     24 H7           1.2780     3.7970    -0.4500 ha         1 3JN       0.044000
     25 H8           3.3300     2.5580     0.1590 ha         1 3JN       0.091000
@<TRIPOS>BOND
     1     1     2 1   
     2     2     3 1   
     3     2     4 1   
     4     4     5 1   
     5     4    19 1   
     6     4    20 1   
     7     5     6 2   
     8     5    21 1   
     9     6     7 1   
    10     6    22 1   
    11     7     8 ar  
    12     7    11 ar  
    13     8     9 ar  
    14     8    23 1   
    15     9    10 ar  
    16     9    24 1   
    17    10    15 ar  
    18    10    25 1   
    19    11    12 1   
    20    11    15 ar  
    21    12    13 1   
    22    12    14 1   
    23    15    16 1   
    24    16    17 1   
    25    16    18 1   
@<TRIPOS>SUBSTRUCTURE
     1 3JN         1 TEMP              0 ****  ****    0 ROOT
