@<TRIPOS>MOLECULE
3JO
   85    88     1     0     0
SMALL
bcc


@<TRIPOS>ATOM
      1 CAB         -3.1180    -1.9290    -3.3120 c3         1 3JO      -0.122400
      2 CBJ         -4.4290    -2.4370    -2.8120 cc         1 3JO       0.362600
      3 NAY         -5.0530    -3.4430    -3.5000 nc         1 3JO      -0.638000
      4 CAT         -6.1880    -3.7540    -2.9670 cd         1 3JO       0.410300
      5 SBC         -6.5980    -2.8510    -1.5710 ss         1 3JO      -0.181300
      6 CBL         -5.1170    -1.9770    -1.7200 cd         1 3JO      -0.095400
      7 CBK         -4.7640    -0.9240    -0.7660 ca         1 3JO      -0.013000
      8 CAS         -5.7070     0.0230    -0.3610 ca         1 3JO      -0.112500
      9 CAQ         -5.3620     1.0260     0.5280 ca         1 3JO      -0.117000
     10 CAR         -3.4770    -0.8380    -0.2380 ca         1 3JO      -0.112500
     11 CAP         -3.1330     0.1730     0.6470 ca         1 3JO      -0.117000
     12 CBH         -4.0700     1.1200     1.0400 ca         1 3JO      -0.091300
     13 CAU         -3.7510     2.2200     2.0240 c3         1 3JO       0.155300
     14 NAZ         -2.3480     2.5020     2.1900 ns         1 3JO      -0.564900
     15 CBE         -1.6160     3.0820     1.2290 c          1 3JO       0.662100
     16 OAG         -2.0730     3.3990     0.1430 o          1 3JO      -0.593100
     17 CBO         -0.1770     3.4080     1.6100 c5         1 3JO       0.031700
     18 CAW          0.0070     4.9210     1.8000 c5         1 3JO      -0.082400
     19 CBM          1.4180     5.1760     1.2990 c5         1 3JO       0.130100
     20 OAJ          2.3140     4.7710     2.3060 oh         1 3JO      -0.588800
     21 CAX          1.4750     4.2670     0.0770 c5         1 3JO       0.069000
     22 NBQ          0.7290     3.0950     0.5150 n          1 3JO      -0.449800
     23 CBG          0.8790     1.8160     0.1430 c          1 3JO       0.675100
     24 OAI          0.3020     0.9130     0.7400 o          1 3JO      -0.632100
     25 CBP          1.7670     1.4800    -1.0520 c3         1 3JO       0.047700
     26 CBR          0.9540     1.3500    -2.3750 c3         1 3JO      -0.046000
     27 CAD         -0.1370     0.2840    -2.2820 c3         1 3JO      -0.089100
     28 CAE          0.3170     2.6970    -2.7190 c3         1 3JO      -0.089100
     29 CAC          1.9280     0.9710    -3.4940 c3         1 3JO      -0.089100
     30 NBB          2.4730     0.2660    -0.7180 ns         1 3JO      -0.557900
     31 C            3.8060     0.1280    -0.8000 c          1 3JO       0.676100
     32 O            4.5490     0.9900    -1.2340 o          1 3JO      -0.604100
     33 CA           4.3640    -1.2490    -0.4060 c3         1 3JO       0.046700
     34 N            5.6680    -1.0860     0.1790 ns         1 3JO      -0.556900
     35 CBD          5.8720    -0.3350     1.2730 c          1 3JO       0.673100
     36 OAF          4.9600     0.2640     1.8290 o          1 3JO      -0.612100
     37 CAA          7.2950    -0.2680     1.7640 c3         1 3JO      -0.176100
     38 CB           3.4360    -2.1340     0.4480 c3         1 3JO      -0.052100
     39 CG           4.1050    -3.4230     0.8290 ca         1 3JO      -0.081300
     40 CD1          4.1490    -4.4890    -0.0670 ca         1 3JO      -0.124500
     41 CE1          4.7960    -5.6720     0.2650 ca         1 3JO      -0.128500
     42 CZ           5.4090    -5.8060     1.5040 ca         1 3JO      -0.128000
     43 CE2          5.3670    -4.7520     2.4060 ca         1 3JO      -0.128500
     44 CD2          4.7210    -3.5700     2.0690 ca         1 3JO      -0.124500
     45 H1          -2.3070    -2.6220    -3.0770 hc         1 3JO       0.051367
     46 H2          -3.1440    -1.8170    -4.3950 hc         1 3JO       0.051367
     47 H3          -2.8650    -0.9660    -2.8750 hc         1 3JO       0.051367
     48 H4          -6.8480    -4.5200    -3.3500 h5         1 3JO       0.051100
     49 H5          -6.7140    -0.0070    -0.7610 ha         1 3JO       0.135000
     50 H6          -6.1090     1.7570     0.8160 ha         1 3JO       0.142000
     51 H7          -2.7320    -1.5760    -0.5110 ha         1 3JO       0.135000
     52 H8          -2.1190     0.2220     1.0190 ha         1 3JO       0.142000
     53 H9          -4.2770     3.1310     1.7270 h1         1 3JO       0.055700
     54 H10         -4.1380     1.9490     3.0070 h1         1 3JO       0.055700
     55 H11         -1.8950     2.1930     3.0340 hn         1 3JO       0.322500
     56 H12          0.1210     2.8670     2.5120 h1         1 3JO       0.081700
     57 H13         -0.6950     5.4730     1.1730 hc         1 3JO       0.072700
     58 H14         -0.1450     5.2300     2.8330 hc         1 3JO       0.072700
     59 H15          1.5720     6.2220     1.0130 h1         1 3JO       0.052700
     60 H16          3.2120     4.8490     1.9700 ho         1 3JO       0.412000
     61 H17          0.9920     4.7540    -0.7730 h1         1 3JO       0.062700
     62 H18          2.4970     4.0210    -0.2110 h1         1 3JO       0.062700
     63 H19          2.5170     2.2540    -1.2140 h1         1 3JO       0.086700
     64 H20         -0.9240     0.5500    -1.5770 hc         1 3JO       0.040033
     65 H21         -0.6030     0.1580    -3.2610 hc         1 3JO       0.040033
     66 H22          0.2610    -0.6900    -1.9910 hc         1 3JO       0.040033
     67 H23          1.0710     3.4810    -2.8220 hc         1 3JO       0.040033
     68 H24         -0.2050     2.6260    -3.6760 hc         1 3JO       0.040033
     69 H25         -0.4120     3.0150    -1.9730 hc         1 3JO       0.040033
     70 H26          2.3690    -0.0140    -3.3340 hc         1 3JO       0.040033
     71 H27          1.3990     0.9390    -4.4480 hc         1 3JO       0.040033
     72 H28          2.7390     1.6960    -3.5830 hc         1 3JO       0.040033
     73 H29          1.9300    -0.4450    -0.2540 hn         1 3JO       0.335500
     74 H30          4.5240    -1.7690    -1.3560 h1         1 3JO       0.067700
     75 H31          6.4420    -1.5690    -0.2420 hn         1 3JO       0.324500
     76 H32          7.9700    -0.9370     1.2340 hc         1 3JO       0.060033
     77 H33          7.6650     0.7520     1.6540 hc         1 3JO       0.060033
     78 H34          7.3260    -0.5120     2.8250 hc         1 3JO       0.060033
     79 H35          3.1190    -1.5970     1.3430 hc         1 3JO       0.067700
     80 H36          2.5390    -2.3670    -0.1330 hc         1 3JO       0.067700
     81 H37          3.6680    -4.3960    -1.0350 ha         1 3JO       0.133000
     82 H38          4.8170    -6.4900    -0.4440 ha         1 3JO       0.131000
     83 H39          5.9120    -6.7280     1.7660 ha         1 3JO       0.131000
     84 H40          5.8380    -4.8490     3.3760 ha         1 3JO       0.131000
     85 H41          4.6890    -2.7530     2.7800 ha         1 3JO       0.133000
@<TRIPOS>BOND
     1     1     2 1   
     2     1    45 1   
     3     1    46 1   
     4     1    47 1   
     5     2     3 1   
     6     2     6 2   
     7     3     4 2   
     8     4     5 1   
     9     4    48 1   
    10     5     6 1   
    11     6     7 1   
    12     7     8 ar  
    13     7    10 ar  
    14     8     9 ar  
    15     8    49 1   
    16     9    12 ar  
    17     9    50 1   
    18    10    11 ar  
    19    10    51 1   
    20    11    12 ar  
    21    11    52 1   
    22    12    13 1   
    23    13    14 1   
    24    13    53 1   
    25    13    54 1   
    26    14    15 1   
    27    14    55 1   
    28    15    16 2   
    29    15    17 1   
    30    17    18 1   
    31    17    22 1   
    32    17    56 1   
    33    18    19 1   
    34    18    57 1   
    35    18    58 1   
    36    19    20 1   
    37    19    21 1   
    38    19    59 1   
    39    20    60 1   
    40    21    22 1   
    41    21    61 1   
    42    21    62 1   
    43    22    23 1   
    44    23    24 2   
    45    23    25 1   
    46    25    26 1   
    47    25    30 1   
    48    25    63 1   
    49    26    27 1   
    50    26    28 1   
    51    26    29 1   
    52    27    64 1   
    53    27    65 1   
    54    27    66 1   
    55    28    67 1   
    56    28    68 1   
    57    28    69 1   
    58    29    70 1   
    59    29    71 1   
    60    29    72 1   
    61    30    31 1   
    62    30    73 1   
    63    31    32 2   
    64    31    33 1   
    65    33    34 1   
    66    33    38 1   
    67    33    74 1   
    68    34    35 1   
    69    34    75 1   
    70    35    36 2   
    71    35    37 1   
    72    37    76 1   
    73    37    77 1   
    74    37    78 1   
    75    38    39 1   
    76    38    79 1   
    77    38    80 1   
    78    39    40 ar  
    79    39    44 ar  
    80    40    41 ar  
    81    40    81 1   
    82    41    42 ar  
    83    41    82 1   
    84    42    43 ar  
    85    42    83 1   
    86    43    44 ar  
    87    43    84 1   
    88    44    85 1   
@<TRIPOS>SUBSTRUCTURE
     1 3JO         1 TEMP              0 ****  ****    0 ROOT
