@<TRIPOS>MOLECULE
3JO
   85    88     1     0     0
SMALL
No Charge or Current Charge


@<TRIPOS>ATOM
      1 CAB         -0.7520    -3.1480    -1.0950 c3         1 3JO      -0.122400
      2 CBJ         -1.9870    -3.0470    -1.9500 cc         1 3JO       0.297300
      3 NAY         -2.0770    -3.9500    -2.9800 nc         1 3JO      -0.638000
      4 CAT         -3.1770    -3.7440    -3.6900 cd         1 3JO       0.410300
      5 SBC         -4.1820    -2.4080    -3.1600 ss         1 3JO      -0.036400
      6 CBL         -3.0180    -2.1210    -1.8690 cd         1 3JO      -0.175000
      7 CBK         -3.3010    -1.0950    -0.8300 ca         1 3JO      -0.013000
      8 CAS         -4.1960    -0.0390    -1.1160 ca         1 3JO      -0.094500
      9 CAQ         -4.4550     0.9710    -0.1730 ca         1 3JO      -0.099000
     10 CAR         -2.7110    -1.1280     0.4540 ca         1 3JO      -0.094500
     11 CAP         -2.9750    -0.1220     1.3990 ca         1 3JO      -0.099000
     12 CBH         -3.8370     0.9440     1.0880 ca         1 3JO      -0.091300
     13 CAU         -4.0430     2.0820     2.0820 c3         1 3JO       0.155300
     14 NAZ         -2.7980     2.8260     2.2780 ns         1 3JO      -0.497900
     15 CBE         -2.1680     3.5250     1.2710 c          1 3JO       0.595100
     16 OAG         -2.7020     3.7800     0.1980 o          1 3JO      -0.593100
     17 CBO         -0.7210     3.9140     1.7100 c5         1 3JO       0.031700
     18 CAW         -0.5760     5.4640     1.7100 c5         1 3JO      -0.082400
     19 CBM          0.9590     5.6500     1.6010 c5         1 3JO       0.153300
     20 OAJ          1.6030     5.3870     2.8520 oh         1 3JO      -0.651000
     21 CAX          1.3270     4.5940     0.5090 c5         1 3JO       0.069000
     22 NBQ          0.3090     3.5340     0.7110 n          1 3JO      -0.382800
     23 CBG          0.5180     2.1840     0.3570 c          1 3JO       0.608100
     24 OAI          0.0060     1.2960     1.0330 o          1 3JO      -0.632100
     25 CBP          1.3490     1.8370    -0.9250 c3         1 3JO       0.047700
     26 CBR          0.5230     1.9520    -2.2680 c3         1 3JO      -0.046000
     27 CAD         -0.7530     1.0650    -2.2130 c3         1 3JO      -0.089100
     28 CAE          0.0900     3.4190    -2.5370 c3         1 3JO      -0.089100
     29 CAC          1.3880     1.4950    -3.4780 c3         1 3JO      -0.089100
     30 NBB          1.9100     0.4750    -0.7450 ns         1 3JO      -0.490900
     31 C            3.2090     0.0940    -1.0180 c          1 3JO       0.609100
     32 O            4.0270     0.8940    -1.4580 o          1 3JO      -0.604100
     33 CA           3.5400    -1.4090    -0.7330 c3         1 3JO       0.046700
     34 N            4.9960    -1.6820    -0.8360 ns         1 3JO      -0.489900
     35 CBD          5.9550    -1.2570     0.0580 c          1 3JO       0.606100
     36 OAF          5.7030    -0.5560     1.0270 o          1 3JO      -0.612100
     37 CAA          7.3680    -1.7290    -0.2590 c3         1 3JO      -0.176100
     38 CB           2.9120    -1.9620     0.5820 c3         1 3JO      -0.052100
     39 CG           3.3480    -3.3900     0.8990 ca         1 3JO      -0.081300
     40 CD1          2.9550    -4.4540     0.0630 ca         1 3JO      -0.106500
     41 CE1          3.3590    -5.7690     0.3500 ca         1 3JO      -0.110500
     42 CZ           4.1600    -6.0290     1.4740 ca         1 3JO      -0.110000
     43 CE2          4.5560    -4.9730     2.3120 ca         1 3JO      -0.110500
     44 CD2          4.1500    -3.6580     2.0260 ca         1 3JO      -0.106500
     45 H1          -0.9520    -3.7230    -0.1830 hc         1 3JO       0.051367
     46 H2           0.0600    -3.6520    -1.6310 hc         1 3JO       0.051367
     47 H3          -0.3830    -2.1550    -0.8150 hc         1 3JO       0.051367
     48 H4          -3.4740    -4.3280    -4.5530 h5         1 3JO       0.051100
     49 H5          -4.6730     0.0370    -2.0890 ha         1 3JO       0.117000
     50 H6          -5.1190     1.7920    -0.4370 ha         1 3JO       0.124000
     51 H7          -2.0580    -1.9370     0.7540 ha         1 3JO       0.117000
     52 H8          -2.4900    -0.1620     2.3720 ha         1 3JO       0.124000
     53 H9          -4.8200     2.7690     1.7230 h1         1 3JO       0.055700
     54 H10         -4.3700     1.6730     3.0480 h1         1 3JO       0.055700
     55 H11         -2.2730     2.6650     3.1290 hn         1 3JO       0.322500
     56 H12         -0.4880     3.4840     2.6930 h1         1 3JO       0.081700
     57 H13         -1.0770     5.9180     0.8460 hc         1 3JO       0.072700
     58 H14         -0.9990     5.9280     2.6090 hc         1 3JO       0.072700
     59 H15          1.2090     6.6660     1.2640 h1         1 3JO       0.052700
     60 H16          2.5540     5.6100     2.7410 ho         1 3JO       0.451000
     61 H17          1.2410     5.0320    -0.4930 h1         1 3JO       0.062700
     62 H18          2.3510     4.2170     0.6330 h1         1 3JO       0.062700
     63 H19          2.1820     2.5480    -0.9700 h1         1 3JO       0.086700
     64 H20         -1.4320     1.3870    -1.4140 hc         1 3JO       0.040033
     65 H21         -1.3090     1.1190    -3.1570 hc         1 3JO       0.040033
     66 H22         -0.5000     0.0120    -2.0390 hc         1 3JO       0.040033
     67 H23          0.9610     4.0840    -2.5740 hc         1 3JO       0.040033
     68 H24         -0.4290     3.5010    -3.5000 hc         1 3JO       0.040033
     69 H25         -0.5990     3.7870    -1.7700 hc         1 3JO       0.040033
     70 H26          1.6390     0.4290    -3.4160 hc         1 3JO       0.040033
     71 H27          0.8520     1.6460    -4.4230 hc         1 3JO       0.040033
     72 H28          2.3230     2.0650    -3.5290 hc         1 3JO       0.040033
     73 H29          1.3010    -0.2270    -0.3420 hn         1 3JO       0.335500
     74 H30          3.0650    -1.9580    -1.5560 h1         1 3JO       0.067700
     75 H31          5.3240    -2.2510    -1.6060 hn         1 3JO       0.324500
     76 H32          7.3700    -2.8230    -0.3270 hc         1 3JO       0.060033
     77 H33          7.6240    -1.4310    -1.2820 hc         1 3JO       0.060033
     78 H34          8.1060    -1.3680     0.4650 hc         1 3JO       0.060033
     79 H35          3.1680    -1.2930     1.4120 hc         1 3JO       0.067700
     80 H36          1.8190    -1.9360     0.5060 hc         1 3JO       0.067700
     81 H37          2.3360    -4.2630    -0.8110 ha         1 3JO       0.115000
     82 H38          3.0520    -6.5860    -0.3000 ha         1 3JO       0.113000
     83 H39          4.4740    -7.0470     1.6960 ha         1 3JO       0.113000
     84 H40          5.1770    -5.1730     3.1830 ha         1 3JO       0.113000
     85 H41          4.4650    -2.8470     2.6790 ha         1 3JO       0.115000
@<TRIPOS>BOND
     1     1     2 1   
     2     1    45 1   
     3     1    46 1   
     4     1    47 1   
     5     2     3 1   
     6     2     6 2   
     7     3     4 2   
     8     4     5 1   
     9     4    48 1   
    10     5     6 1   
    11     6     7 1   
    12     7     8 ar  
    13     7    10 ar  
    14     8     9 ar  
    15     8    49 1   
    16     9    12 ar  
    17     9    50 1   
    18    10    11 ar  
    19    10    51 1   
    20    11    12 ar  
    21    11    52 1   
    22    12    13 1   
    23    13    14 1   
    24    13    53 1   
    25    13    54 1   
    26    14    15 1   
    27    14    55 1   
    28    15    16 2   
    29    15    17 1   
    30    17    18 1   
    31    17    22 1   
    32    17    56 1   
    33    18    19 1   
    34    18    57 1   
    35    18    58 1   
    36    19    20 1   
    37    19    21 1   
    38    19    59 1   
    39    20    60 1   
    40    21    22 1   
    41    21    61 1   
    42    21    62 1   
    43    22    23 1   
    44    23    24 2   
    45    23    25 1   
    46    25    26 1   
    47    25    30 1   
    48    25    63 1   
    49    26    27 1   
    50    26    28 1   
    51    26    29 1   
    52    27    64 1   
    53    27    65 1   
    54    27    66 1   
    55    28    67 1   
    56    28    68 1   
    57    28    69 1   
    58    29    70 1   
    59    29    71 1   
    60    29    72 1   
    61    30    31 1   
    62    30    73 1   
    63    31    32 2   
    64    31    33 1   
    65    33    34 1   
    66    33    38 1   
    67    33    74 1   
    68    34    35 1   
    69    34    75 1   
    70    35    36 2   
    71    35    37 1   
    72    37    76 1   
    73    37    77 1   
    74    37    78 1   
    75    38    39 1   
    76    38    79 1   
    77    38    80 1   
    78    39    40 ar  
    79    39    44 ar  
    80    40    41 ar  
    81    40    81 1   
    82    41    42 ar  
    83    41    82 1   
    84    42    43 ar  
    85    42    83 1   
    86    43    44 ar  
    87    43    84 1   
    88    44    85 1   
@<TRIPOS>SUBSTRUCTURE
     1 3JO         1 TEMP              0 ****  ****    0 ROOT
