@<TRIPOS>MOLECULE
3JP
   69    72     1     0     0
SMALL
No Charge or Current Charge


@<TRIPOS>ATOM
      1 CAC         -7.0270    -0.3870    -3.0870 c3         1 3JP       0.145900
      2 OAW         -7.4820     0.4940    -2.0450 os         1 3JP      -0.318100
      3 CBE         -6.8000     0.6480    -0.8490 ca         1 3JP       0.149100
      4 CAO         -5.6060    -0.0590    -0.5790 ca         1 3JP      -0.214000
      5 CBD         -7.3220     1.5390     0.1190 ca         1 3JP       0.076100
      6 OAV         -8.4940     2.2210    -0.1680 os         1 3JP      -0.322100
      7 CAB         -9.0970     3.1460     0.7540 c3         1 3JP       0.145900
      8 CAK         -6.6410     1.7120     1.3460 ca         1 3JP      -0.132000
      9 CAJ         -5.4550     1.0040     1.6040 ca         1 3JP      -0.197000
     10 CBB         -4.9360     0.1170     0.6390 ca         1 3JP       0.146100
     11 OAX         -3.7770    -0.6010     0.8380 os         1 3JP      -0.360100
     12 CAQ         -2.9880    -0.4760     2.0370 c3         1 3JP       0.136600
     13 CAT         -1.7450    -1.3820     1.9050 c3         1 3JP       0.096000
     14 NBI         -0.8450    -1.0010     0.7810 n          1 3JP      -0.389800
     15 C            0.2490    -0.1230     1.0070 c          1 3JP       0.559000
     16 O            0.5110     0.2470     2.1470 o          1 3JP      -0.555000
     17 CAU         -1.1160    -1.6230    -0.5410 c3         1 3JP       0.117000
     18 CBF          0.0140    -2.5380    -1.0890 c3         1 3JP      -0.075700
     19 CAI          0.3700    -3.6990    -0.1130 c3         1 3JP      -0.072400
     20 CAA         -0.7380    -4.7650     0.0390 c3         1 3JP      -0.088100
     21 CBH          1.2510    -1.7570    -1.6780 c6         1 3JP       0.246500
     22 CAS          0.8400    -0.9060    -2.9300 c6         1 3JP      -0.093400
     23 CAP          0.9950     0.6260    -2.7320 c6         1 3JP      -0.071400
     24 CB           0.5250     1.0720    -1.3250 c6         1 3JP      -0.084400
     25 CA           1.2120     0.2690    -0.1690 c6         1 3JP       0.164500
     26 N            1.9960    -0.8860    -0.7280 n3         1 3JP      -0.775500
     27 SBK          3.2670    -1.5400     0.2010 sy         1 3JP       1.190600
     28 OAE          2.7010    -2.1080     1.4260 o          1 3JP      -0.527000
     29 OAF          4.0740    -2.3350    -0.7300 o          1 3JP      -0.527000
     30 CBC          4.2240    -0.0660     0.5800 ca         1 3JP      -0.274500
     31 CAM          4.2540     0.4530     1.8930 ca         1 3JP      -0.013000
     32 CAZ          4.9850     1.6220     2.1670 ca         1 3JP       0.101000
     33 ClA          5.0210     2.2700     3.8020 cl         1 3JP      -0.179500
     34 CAL          5.6840     2.2780     1.1400 ca         1 3JP      -0.053000
     35 CBA          5.6490     1.7660    -0.1680 ca         1 3JP       0.101000
     36 ClB          6.5160     2.5930    -1.4570 cl         1 3JP      -0.179500
     37 CAN          4.9210     0.5980    -0.4520 ca         1 3JP      -0.013000
     38 H1          -6.0310    -0.0900    -3.4410 h1         1 3JP       0.040367
     39 H2          -6.9800    -1.4230    -2.7290 h1         1 3JP       0.040367
     40 H3          -7.7150    -0.3530    -3.9400 h1         1 3JP       0.040367
     41 H4          -5.1820    -0.7480    -1.3010 ha         1 3JP       0.128000
     42 H5          -9.3630     2.6430     1.6930 h1         1 3JP       0.038033
     43 H6          -8.4130     3.9750     0.9780 h1         1 3JP       0.038033
     44 H7         -10.0130     3.5690     0.3230 h1         1 3JP       0.038033
     45 H8          -7.0160     2.3880     2.1100 ha         1 3JP       0.119000
     46 H9          -4.9540     1.1560     2.5560 ha         1 3JP       0.122000
     47 H10         -2.6620     0.5620     2.1840 h1         1 3JP       0.050200
     48 H11         -3.5680    -0.7880     2.9150 h1         1 3JP       0.050200
     49 H12         -1.1910    -1.3620     2.8510 h1         1 3JP       0.070200
     50 H13         -2.0800    -2.4180     1.7680 h1         1 3JP       0.070200
     51 H14         -2.0190    -2.2390    -0.4480 h1         1 3JP       0.051700
     52 H15         -1.3830    -0.8580    -1.2740 h1         1 3JP       0.051700
     53 H16         -0.4320    -3.0430    -1.9550 hc         1 3JP       0.054700
     54 H17          1.2810    -4.2000    -0.4640 hc         1 3JP       0.053700
     55 H18          0.5900    -3.3010     0.8820 hc         1 3JP       0.053700
     56 H19         -0.4030    -5.5640     0.7110 hc         1 3JP       0.032700
     57 H20         -1.6540    -4.3340     0.4580 hc         1 3JP       0.032700
     58 H21         -0.9790    -5.2160    -0.9310 hc         1 3JP       0.032700
     59 H22          1.9300    -2.5310    -2.0660 h1         1 3JP       0.072700
     60 H23          1.4610    -1.2090    -3.7840 hc         1 3JP       0.049200
     61 H24         -0.1910    -1.1290    -3.2360 hc         1 3JP       0.049200
     62 H25          2.0520     0.9010    -2.8590 hc         1 3JP       0.048700
     63 H26          0.4410     1.1670    -3.5110 hc         1 3JP       0.048700
     64 H27          0.7630     2.1370    -1.1980 hc         1 3JP       0.058200
     65 H28         -0.5670     1.0330    -1.2540 hc         1 3JP       0.058200
     66 H29          1.9120     0.9790     0.2930 h1         1 3JP       0.088700
     67 H30          3.7110    -0.0360     2.7000 ha         1 3JP       0.154500
     68 H31          6.2470     3.1820     1.3550 ha         1 3JP       0.147000
     69 H32          4.8930     0.2170    -1.4710 ha         1 3JP       0.154500
@<TRIPOS>BOND
     1     1     2 1   
     2     1    38 1   
     3     1    39 1   
     4     1    40 1   
     5     2     3 1   
     6     3     4 ar  
     7     3     5 ar  
     8     4    10 ar  
     9     4    41 1   
    10     5     6 1   
    11     5     8 ar  
    12     6     7 1   
    13     7    42 1   
    14     7    43 1   
    15     7    44 1   
    16     8     9 ar  
    17     8    45 1   
    18     9    10 ar  
    19     9    46 1   
    20    10    11 1   
    21    11    12 1   
    22    12    13 1   
    23    12    47 1   
    24    12    48 1   
    25    13    14 1   
    26    13    49 1   
    27    13    50 1   
    28    14    15 1   
    29    14    17 1   
    30    15    16 2   
    31    15    25 1   
    32    17    18 1   
    33    17    51 1   
    34    17    52 1   
    35    18    19 1   
    36    18    21 1   
    37    18    53 1   
    38    19    20 1   
    39    19    54 1   
    40    19    55 1   
    41    20    56 1   
    42    20    57 1   
    43    20    58 1   
    44    21    22 1   
    45    21    26 1   
    46    21    59 1   
    47    22    23 1   
    48    22    60 1   
    49    22    61 1   
    50    23    24 1   
    51    23    62 1   
    52    23    63 1   
    53    24    25 1   
    54    24    64 1   
    55    24    65 1   
    56    25    26 1   
    57    25    66 1   
    58    26    27 1   
    59    27    28 2   
    60    27    29 2   
    61    27    30 1   
    62    30    31 ar  
    63    30    37 ar  
    64    31    32 ar  
    65    31    67 1   
    66    32    33 1   
    67    32    34 ar  
    68    34    35 ar  
    69    34    68 1   
    70    35    36 1   
    71    35    37 ar  
    72    37    69 1   
@<TRIPOS>SUBSTRUCTURE
     1 3JP         1 TEMP              0 ****  ****    0 ROOT
