@<TRIPOS>MOLECULE
3JP
   69    72     1     0     0
SMALL
abcg2


@<TRIPOS>ATOM
      1 CAC         -6.4200     0.2210    -3.4300 c3         1 3JP       0.145900
      2 OAW         -7.0410     0.9160    -2.3680 os         1 3JP      -0.318100
      3 CBE         -6.5410     0.7670    -1.1290 ca         1 3JP       0.149100
      4 CAO         -5.4580    -0.0290    -0.8120 ca         1 3JP      -0.214000
      5 CBD         -7.2020     1.4930    -0.1140 ca         1 3JP       0.076100
      6 OAV         -8.2500     2.2450    -0.5170 os         1 3JP      -0.322100
      7 CAB         -8.9380     2.9890     0.4650 c3         1 3JP       0.145900
      8 CAK         -6.7440     1.3870     1.1830 ca         1 3JP      -0.132000
      9 CAJ         -5.6490     0.5780     1.5090 ca         1 3JP      -0.197000
     10 CBB         -5.0080    -0.1290     0.5110 ca         1 3JP       0.146100
     11 OAX         -3.9470    -0.9440     0.6990 os         1 3JP      -0.360100
     12 CAQ         -3.4060    -1.0700     1.9990 c3         1 3JP       0.136600
     13 CAT         -2.1870    -1.9650     1.9150 c3         1 3JP       0.096000
     14 NBI         -1.1110    -1.4200     1.0970 n          1 3JP      -0.389800
     15 C           -0.3060    -0.5050     1.6810 c          1 3JP       0.559000
     16 O           -0.4610    -0.1450     2.8400 o          1 3JP      -0.555000
     17 CAU         -1.1450    -1.7100    -0.3370 c3         1 3JP       0.117000
     18 CBF          0.0940    -2.3710    -0.9380 c3         1 3JP      -0.075700
     19 CAI          0.4810    -3.6640    -0.2210 c3         1 3JP      -0.072400
     20 CAA         -0.5940    -4.7430    -0.2610 c3         1 3JP      -0.088100
     21 CBH          1.2840    -1.4160    -1.0800 c6         1 3JP       0.246500
     22 CAS          1.0350    -0.2490    -2.0640 c6         1 3JP      -0.093400
     23 CAP          1.1860     1.1180    -1.4110 c6         1 3JP      -0.071400
     24 CB           0.3600     1.1770    -0.1380 c6         1 3JP      -0.084400
     25 CA           0.8350     0.1050     0.8710 c6         1 3JP       0.164500
     26 N            1.6640    -0.9180     0.2440 n3         1 3JP      -0.775500
     27 SBK          3.1260    -1.2570     0.8970 sy         1 3JP       1.190600
     28 OAE          3.0130    -1.1090     2.3380 o          1 3JP      -0.527000
     29 OAF          3.6010    -2.5050     0.3290 o          1 3JP      -0.527000
     30 CBC          4.2120     0.0260     0.3140 ca         1 3JP      -0.274500
     31 CAM          4.3970     1.1610     1.0880 ca         1 3JP      -0.013000
     32 CAZ          5.1740     2.1840     0.5670 ca         1 3JP       0.101000
     33 CLA          5.4260     3.6100     1.5020 cl         1 3JP      -0.179500
     34 CAL          5.7600     2.0880    -0.6850 ca         1 3JP      -0.053000
     35 CBA          5.5590     0.9300    -1.4210 ca         1 3JP       0.101000
     36 CLB          6.2920     0.7910    -2.9760 cl         1 3JP      -0.179500
     37 CAN          4.7910    -0.1150    -0.9390 ca         1 3JP      -0.013000
     38 H1          -5.3770     0.5240    -3.5610 h1         1 3JP       0.040367
     39 H2          -6.4550    -0.8620    -3.2870 h1         1 3JP       0.040367
     40 H3          -6.9740     0.4740    -4.3300 h1         1 3JP       0.040367
     41 H4          -4.9360    -0.5930    -1.5750 ha         1 3JP       0.128000
     42 H5          -9.3740     2.3470     1.2360 h1         1 3JP       0.038033
     43 H6          -8.2900     3.7250     0.9500 h1         1 3JP       0.038033
     44 H7          -9.7400     3.5140    -0.0470 h1         1 3JP       0.038033
     45 H8          -7.2260     1.9320     1.9830 ha         1 3JP       0.119000
     46 H9          -5.3350     0.5260     2.5420 ha         1 3JP       0.122000
     47 H10         -3.1340    -0.0910     2.4060 h1         1 3JP       0.050200
     48 H11         -4.1330    -1.5260     2.6820 h1         1 3JP       0.050200
     49 H12         -1.8240    -2.1420     2.9270 h1         1 3JP       0.070200
     50 H13         -2.4670    -2.9380     1.5110 h1         1 3JP       0.070200
     51 H14         -1.9820    -2.3870    -0.4910 h1         1 3JP       0.051700
     52 H15         -1.4130    -0.8140    -0.8990 h1         1 3JP       0.051700
     53 H16         -0.1990    -2.6300    -1.9620 hc         1 3JP       0.054700
     54 H17          1.3870    -4.0580    -0.6890 hc         1 3JP       0.053700
     55 H18          0.7470    -3.4520     0.8170 hc         1 3JP       0.053700
     56 H19         -0.2310    -5.6620     0.1990 hc         1 3JP       0.032700
     57 H20         -1.4970    -4.4560     0.2780 hc         1 3JP       0.032700
     58 H21         -0.8840    -4.9800    -1.2860 hc         1 3JP       0.032700
     59 H22          2.1160    -2.0040    -1.4610 h1         1 3JP       0.072700
     60 H23          1.7240    -0.3370    -2.9050 hc         1 3JP       0.049200
     61 H24          0.0300    -0.3300    -2.4850 hc         1 3JP       0.049200
     62 H25          2.2360     1.3290    -1.1900 hc         1 3JP       0.048700
     63 H26          0.8570     1.8950    -2.1020 hc         1 3JP       0.048700
     64 H27          0.4410     2.1530     0.3390 hc         1 3JP       0.058200
     65 H28         -0.6950     1.0540    -0.3920 hc         1 3JP       0.058200
     66 H29          1.4380     0.6210     1.6160 h1         1 3JP       0.088700
     67 H30          3.9630     1.2530     2.0740 ha         1 3JP       0.154500
     68 H31          6.3640     2.8940    -1.0760 ha         1 3JP       0.147000
     69 H32          4.6570    -1.0110    -1.5290 ha         1 3JP       0.154500
@<TRIPOS>BOND
     1     1     2 1   
     2     1    38 1   
     3     1    39 1   
     4     1    40 1   
     5     2     3 1   
     6     3     4 ar  
     7     3     5 ar  
     8     4    10 ar  
     9     4    41 1   
    10     5     6 1   
    11     5     8 ar  
    12     6     7 1   
    13     7    42 1   
    14     7    43 1   
    15     7    44 1   
    16     8     9 ar  
    17     8    45 1   
    18     9    10 ar  
    19     9    46 1   
    20    10    11 1   
    21    11    12 1   
    22    12    13 1   
    23    12    47 1   
    24    12    48 1   
    25    13    14 1   
    26    13    49 1   
    27    13    50 1   
    28    14    15 1   
    29    14    17 1   
    30    15    16 2   
    31    15    25 1   
    32    17    18 1   
    33    17    51 1   
    34    17    52 1   
    35    18    19 1   
    36    18    21 1   
    37    18    53 1   
    38    19    20 1   
    39    19    54 1   
    40    19    55 1   
    41    20    56 1   
    42    20    57 1   
    43    20    58 1   
    44    21    22 1   
    45    21    26 1   
    46    21    59 1   
    47    22    23 1   
    48    22    60 1   
    49    22    61 1   
    50    23    24 1   
    51    23    62 1   
    52    23    63 1   
    53    24    25 1   
    54    24    64 1   
    55    24    65 1   
    56    25    26 1   
    57    25    66 1   
    58    26    27 1   
    59    27    28 2   
    60    27    29 2   
    61    27    30 1   
    62    30    31 ar  
    63    30    37 ar  
    64    31    32 ar  
    65    31    67 1   
    66    32    33 1   
    67    32    34 ar  
    68    34    35 ar  
    69    34    68 1   
    70    35    36 1   
    71    35    37 ar  
    72    37    69 1   
@<TRIPOS>SUBSTRUCTURE
     1 3JP         1 TEMP              0 ****  ****    0 ROOT
