@<TRIPOS>MOLECULE
3JQ
   71    74     1     0     0
SMALL
No Charge or Current Charge


@<TRIPOS>ATOM
      1 CAB         -6.4020     2.2160    -2.7750 c3         1 3JQ       0.145900
      2 OAY         -7.2400     1.6200    -1.7700 os         1 3JQ      -0.317100
      3 CBF         -6.7770     0.6490    -0.8960 ca         1 3JQ       0.148100
      4 CAM         -5.4440     0.1820    -0.9430 ca         1 3JQ      -0.212000
      5 CBE         -7.6730     0.1200     0.0640 ca         1 3JQ       0.079100
      6 OAX         -8.9750     0.5940     0.0910 os         1 3JQ      -0.321100
      7 CAA         -9.9530     0.1150     1.0310 c3         1 3JQ       0.145900
      8 CAK         -7.2220    -0.8710     0.9670 ca         1 3JQ      -0.132000
      9 CAJ         -5.8930    -1.3270     0.9110 ca         1 3JQ      -0.194000
     10 CBD         -5.0020    -0.8000    -0.0460 ca         1 3JQ       0.143100
     11 OAZ         -3.6910    -1.2090    -0.1440 os         1 3JQ      -0.361100
     12 CAR         -3.1170    -2.1820     0.7510 c3         1 3JQ       0.136600
     13 CAV         -1.6270    -2.3600     0.3890 c3         1 3JQ       0.094000
     14 NBL         -0.8260    -1.1140     0.5470 n          1 3JQ      -0.404800
     15 C           -0.1510    -0.8500     1.7670 c          1 3JQ       0.559000
     16 O           -0.0570    -1.7270     2.6200 o          1 3JQ      -0.553000
     17 CAU         -0.7140    -0.2260    -0.6420 c3         1 3JQ       0.114000
     18 CBJ          0.7230     0.1280    -1.1380 c3         1 3JQ      -0.112700
     19 CBH          1.6290    -1.0950    -1.4870 c3         1 3JQ       0.178300
     20 OAG          2.0510    -1.7450    -0.2810 oh         1 3JQ      -0.637000
     21 CAP          0.9810    -2.1110    -2.4770 c3         1 3JQ       0.132600
     22 OAF          1.9470    -3.0550    -2.9710 oh         1 3JQ      -0.642000
     23 CBK          1.4790     1.1960    -0.2740 c6         1 3JQ       0.247500
     24 CAT          0.7460     2.5750    -0.2390 c6         1 3JQ      -0.094400
     25 CAQ          0.1610     2.9610     1.1410 c6         1 3JQ      -0.074400
     26 CB          -0.3940     1.7420     1.9120 c6         1 3JQ      -0.087400
     27 CA           0.5810     0.5160     1.9810 c6         1 3JQ       0.155500
     28 N            1.7890     0.6830     1.0920 n3         1 3JQ      -0.767500
     29 SBN          3.2570     1.1070     1.8710 sy         1 3JQ       1.181600
     30 OAD          3.0490     2.3850     2.5550 o          1 3JQ      -0.539000
     31 OAE          3.6710    -0.1060     2.5810 o          1 3JQ      -0.539000
     32 CBG          4.4020     1.3400     0.5030 ca         1 3JQ      -0.242500
     33 CAN          4.7140     2.6400     0.0480 ca         1 3JQ      -0.004500
     34 CBB          5.5880     2.8120    -1.0400 ca         1 3JQ       0.113000
     35 ClB          5.9690     4.4320    -1.6100 cl         1 3JQ      -0.189000
     36 CAL          6.1530     1.6950    -1.6770 ca         1 3JQ      -0.040000
     37 CBC          5.8450     0.4010    -1.2260 ca         1 3JQ       0.113000
     38 ClA          6.5470    -0.9980    -2.0290 cl         1 3JQ      -0.189000
     39 CAO          4.9740     0.2190    -0.1380 ca         1 3JQ      -0.004500
     40 H1          -5.5450     2.7260    -2.3170 h1         1 3JQ       0.040033
     41 H2          -6.0290     1.4560    -3.4740 h1         1 3JQ       0.040033
     42 H3          -6.9700     2.9570    -3.3510 h1         1 3JQ       0.040033
     43 H4          -4.7350     0.5690    -1.6680 ha         1 3JQ       0.127000
     44 H5         -10.9120     0.6240     0.8740 h1         1 3JQ       0.038700
     45 H6         -10.1170    -0.9630     0.9090 h1         1 3JQ       0.038700
     46 H7          -9.6310     0.3090     2.0620 h1         1 3JQ       0.038700
     47 H8          -7.8840    -1.2970     1.7150 ha         1 3JQ       0.120000
     48 H9          -5.5750    -2.0900     1.6160 ha         1 3JQ       0.121000
     49 H10         -3.1960    -1.8480     1.7930 h1         1 3JQ       0.052200
     50 H11         -3.6300    -3.1480     0.6530 h1         1 3JQ       0.052200
     51 H12         -1.2050    -3.1600     1.0110 h1         1 3JQ       0.067700
     52 H13         -1.5640    -2.7110    -0.6470 h1         1 3JQ       0.067700
     53 H14         -1.2310    -0.7160    -1.4780 h1         1 3JQ       0.054700
     54 H15         -1.2870     0.6900    -0.4690 h1         1 3JQ       0.054700
     55 H16          0.5550     0.6140    -2.1070 hc         1 3JQ       0.060700
     56 H17          2.5140    -0.6910    -1.9980 h1         1 3JQ       0.078700
     57 H18          2.0140    -1.0360     0.4080 ho         1 3JQ       0.449000
     58 H19          0.1630    -2.6420    -1.9760 h1         1 3JQ       0.015700
     59 H20          0.5460    -1.5560    -3.3190 h1         1 3JQ       0.015700
     60 H21          1.4590    -3.7060    -3.5230 ho         1 3JQ       0.443000
     61 H22          2.4010     1.3680    -0.8440 h1         1 3JQ       0.068700
     62 H23          1.4510     3.3590    -0.5460 hc         1 3JQ       0.052200
     63 H24         -0.0520     2.6030    -0.9930 hc         1 3JQ       0.052200
     64 H25          0.9310     3.4570     1.7430 hc         1 3JQ       0.054200
     65 H26         -0.6310     3.7120     1.0110 hc         1 3JQ       0.054200
     66 H27         -0.6310     2.0560     2.9380 hc         1 3JQ       0.058700
     67 H28         -1.3650     1.4510     1.4940 hc         1 3JQ       0.058700
     68 H29          0.9160     0.4470     3.0270 h1         1 3JQ       0.114700
     69 H30          4.2800     3.5170     0.5240 ha         1 3JQ       0.150500
     70 H31          6.8260     1.8310    -2.5190 ha         1 3JQ       0.145000
     71 H32          4.7430    -0.7900     0.1960 ha         1 3JQ       0.150500
@<TRIPOS>BOND
     1     1     2 1   
     2     1    40 1   
     3     1    41 1   
     4     1    42 1   
     5     2     3 1   
     6     3     4 ar  
     7     3     5 ar  
     8     4    10 ar  
     9     4    43 1   
    10     5     6 1   
    11     5     8 ar  
    12     6     7 1   
    13     7    44 1   
    14     7    45 1   
    15     7    46 1   
    16     8     9 ar  
    17     8    47 1   
    18     9    10 ar  
    19     9    48 1   
    20    10    11 1   
    21    11    12 1   
    22    12    13 1   
    23    12    49 1   
    24    12    50 1   
    25    13    14 1   
    26    13    51 1   
    27    13    52 1   
    28    14    15 1   
    29    14    17 1   
    30    15    16 2   
    31    15    27 1   
    32    17    18 1   
    33    17    53 1   
    34    17    54 1   
    35    18    19 1   
    36    18    23 1   
    37    18    55 1   
    38    19    20 1   
    39    19    21 1   
    40    19    56 1   
    41    20    57 1   
    42    21    22 1   
    43    21    58 1   
    44    21    59 1   
    45    22    60 1   
    46    23    24 1   
    47    23    28 1   
    48    23    61 1   
    49    24    25 1   
    50    24    62 1   
    51    24    63 1   
    52    25    26 1   
    53    25    64 1   
    54    25    65 1   
    55    26    27 1   
    56    26    66 1   
    57    26    67 1   
    58    27    28 1   
    59    27    68 1   
    60    28    29 1   
    61    29    30 2   
    62    29    31 2   
    63    29    32 1   
    64    32    33 ar  
    65    32    39 ar  
    66    33    34 ar  
    67    33    69 1   
    68    34    35 1   
    69    34    36 ar  
    70    36    37 ar  
    71    36    70 1   
    72    37    38 1   
    73    37    39 ar  
    74    39    71 1   
@<TRIPOS>SUBSTRUCTURE
     1 3JQ         1 TEMP              0 ****  ****    0 ROOT
