@<TRIPOS>MOLECULE
3JQ
   71    74     1     0     0
SMALL
abcg2


@<TRIPOS>ATOM
      1 CAB         -6.6330     2.2280    -1.8840 c3         1 3JQ       0.145900
      2 OAY         -7.2970     1.3530    -0.9960 os         1 3JQ      -0.317100
      3 CBF         -6.5900     0.3540    -0.4390 ca         1 3JQ       0.148100
      4 CAM         -5.2500     0.1160    -0.6760 ca         1 3JQ      -0.212000
      5 CBE         -7.3080    -0.4790     0.4470 ca         1 3JQ       0.079100
      6 OAX         -8.6120    -0.1700     0.6170 os         1 3JQ      -0.321100
      7 CAA         -9.3730    -0.9900     1.4760 c3         1 3JQ       0.145900
      8 CAK         -6.6440    -1.5210     1.0620 ca         1 3JQ      -0.132000
      9 CAJ         -5.2880    -1.7660     0.8240 ca         1 3JQ      -0.194000
     10 CBD         -4.5930    -0.9480    -0.0460 ca         1 3JQ       0.143100
     11 OAZ         -3.2860    -1.0910    -0.3610 os         1 3JQ      -0.361100
     12 CAR         -2.5210    -2.0360     0.3560 c3         1 3JQ       0.136600
     13 CAV         -1.0800    -1.9140    -0.0910 c3         1 3JQ       0.094000
     14 NBL         -0.5100    -0.5840     0.0990 n          1 3JQ      -0.404800
     15 C           -0.1520    -0.2340     1.3600 c          1 3JQ       0.559000
     16 O           -0.2310    -1.0220     2.2910 o          1 3JQ      -0.553000
     17 CAU         -0.6560     0.3730    -1.0010 c3         1 3JQ       0.114000
     18 CBJ          0.6250     1.0340    -1.5030 c3         1 3JQ      -0.112700
     19 CBH          1.6880     0.0590    -2.0340 c3         1 3JQ       0.178300
     20 OAG          2.2360    -0.8010    -1.0670 oh         1 3JQ      -0.637000
     21 CAP          1.1750    -0.7080    -3.2480 c3         1 3JQ       0.132600
     22 OAF          2.2640    -1.3430    -3.8700 oh         1 3JQ      -0.642000
     23 CBK          1.1930     2.0890    -0.5480 c6         1 3JQ       0.247500
     24 CAT          0.2770     3.3290    -0.4050 c6         1 3JQ      -0.094400
     25 CAQ         -0.1940     3.5490     1.0280 c6         1 3JQ      -0.074400
     26 CB          -0.7390     2.2570     1.6150 c6         1 3JQ      -0.087400
     27 CA           0.3670     1.1750     1.6320 c6         1 3JQ       0.155500
     28 N            1.4920     1.5270     0.7730 n3         1 3JQ      -0.767500
     29 SBN          2.9470     1.9060     1.4510 sy         1 3JQ       1.181600
     30 OAD          3.3870     3.2120     0.9860 o          1 3JQ      -0.539000
     31 OAE          2.8620     1.6580     2.8810 o          1 3JQ      -0.539000
     32 CBG          4.0520     0.7020     0.7620 ca         1 3JQ      -0.242500
     33 CAN          4.7880     1.0240    -0.3630 ca         1 3JQ      -0.004500
     34 CBB          5.5720     0.0310    -0.9270 ca         1 3JQ       0.113000
     35 CLB          6.4910     0.3870    -2.3450 cl         1 3JQ      -0.189000
     36 CAL          5.6410    -1.2390    -0.3830 ca         1 3JQ      -0.040000
     37 CBC          4.8990    -1.5110     0.7560 ca         1 3JQ       0.113000
     38 CLA          4.9790    -3.0910     1.4490 cl         1 3JQ      -0.189000
     39 CAO          4.0950    -0.5530     1.3450 ca         1 3JQ      -0.004500
     40 H1          -5.8100     2.7580    -1.3960 h1         1 3JQ       0.040033
     41 H2          -6.2430     1.7030    -2.7590 h1         1 3JQ       0.040033
     42 H3          -7.3720     2.9550    -2.2120 h1         1 3JQ       0.040033
     43 H4          -4.6790     0.7450    -1.3480 ha         1 3JQ       0.127000
     44 H5         -10.3830    -0.5870     1.4780 h1         1 3JQ       0.038700
     45 H6          -9.4090    -2.0260     1.1270 h1         1 3JQ       0.038700
     46 H7          -8.9890    -0.9800     2.5000 h1         1 3JQ       0.038700
     47 H8          -7.1650    -2.1770     1.7480 ha         1 3JQ       0.120000
     48 H9          -4.8180    -2.5990     1.3280 ha         1 3JQ       0.121000
     49 H10         -2.6060    -1.8640     1.4330 h1         1 3JQ       0.052200
     50 H11         -2.8620    -3.0590     0.1540 h1         1 3JQ       0.052200
     51 H12         -0.4940    -2.6540     0.4540 h1         1 3JQ       0.067700
     52 H13         -0.9950    -2.1670    -1.1480 h1         1 3JQ       0.067700
     53 H14         -1.1070    -0.1740    -1.8250 h1         1 3JQ       0.054700
     54 H15         -1.3920     1.1400    -0.7540 h1         1 3JQ       0.054700
     55 H16          0.3040     1.6120    -2.3770 hc         1 3JQ       0.060700
     56 H17          2.5270     0.6700    -2.3890 h1         1 3JQ       0.078700
     57 H18          1.5160    -1.2270    -0.5940 ho         1 3JQ       0.449000
     58 H19          0.4120    -1.4420    -2.9460 h1         1 3JQ       0.015700
     59 H20          0.6770    -0.0020    -3.9260 h1         1 3JQ       0.015700
     60 H21          1.9290    -1.8270    -4.6310 ho         1 3JQ       0.443000
     61 H22          2.1350     2.4110    -0.9920 h1         1 3JQ       0.068700
     62 H23          0.8090     4.2120    -0.7590 hc         1 3JQ       0.052200
     63 H24         -0.5960     3.2240    -1.0550 hc         1 3JQ       0.052200
     64 H25          0.6270     3.9240     1.6460 hc         1 3JQ       0.054200
     65 H26         -0.9660     4.3190     1.0470 hc         1 3JQ       0.054200
     66 H27         -1.0850     2.4080     2.6380 hc         1 3JQ       0.058700
     67 H28         -1.6150     1.9380     1.0480 hc         1 3JQ       0.058700
     68 H29          0.7460     1.1200     2.6490 h1         1 3JQ       0.114700
     69 H30          4.7590     2.0140    -0.7970 ha         1 3JQ       0.150500
     70 H31          6.2620    -2.0010    -0.8330 ha         1 3JQ       0.145000
     71 H32          3.5200    -0.7880     2.2300 ha         1 3JQ       0.150500
@<TRIPOS>BOND
     1     1     2 1   
     2     1    40 1   
     3     1    41 1   
     4     1    42 1   
     5     2     3 1   
     6     3     4 ar  
     7     3     5 ar  
     8     4    10 ar  
     9     4    43 1   
    10     5     6 1   
    11     5     8 ar  
    12     6     7 1   
    13     7    44 1   
    14     7    45 1   
    15     7    46 1   
    16     8     9 ar  
    17     8    47 1   
    18     9    10 ar  
    19     9    48 1   
    20    10    11 1   
    21    11    12 1   
    22    12    13 1   
    23    12    49 1   
    24    12    50 1   
    25    13    14 1   
    26    13    51 1   
    27    13    52 1   
    28    14    15 1   
    29    14    17 1   
    30    15    16 2   
    31    15    27 1   
    32    17    18 1   
    33    17    53 1   
    34    17    54 1   
    35    18    19 1   
    36    18    23 1   
    37    18    55 1   
    38    19    20 1   
    39    19    21 1   
    40    19    56 1   
    41    20    57 1   
    42    21    22 1   
    43    21    58 1   
    44    21    59 1   
    45    22    60 1   
    46    23    24 1   
    47    23    28 1   
    48    23    61 1   
    49    24    25 1   
    50    24    62 1   
    51    24    63 1   
    52    25    26 1   
    53    25    64 1   
    54    25    65 1   
    55    26    27 1   
    56    26    66 1   
    57    26    67 1   
    58    27    28 1   
    59    27    68 1   
    60    28    29 1   
    61    29    30 2   
    62    29    31 2   
    63    29    32 1   
    64    32    33 ar  
    65    32    39 ar  
    66    33    34 ar  
    67    33    69 1   
    68    34    35 1   
    69    34    36 ar  
    70    36    37 ar  
    71    36    70 1   
    72    37    38 1   
    73    37    39 ar  
    74    39    71 1   
@<TRIPOS>SUBSTRUCTURE
     1 3JQ         1 TEMP              0 ****  ****    0 ROOT
