@<TRIPOS>MOLECULE
3JR
   71    74     1     0     0
SMALL
No Charge or Current Charge


@<TRIPOS>ATOM
      1 CAB          5.8830    -1.2400    -3.6270 c3         1 3JR       0.145900
      2 OAY          6.5610    -1.7860    -2.4820 os         1 3JR      -0.318100
      3 CBF          6.2510    -1.4110    -1.1850 ca         1 3JR       0.148100
      4 CAM          5.2450    -0.4580    -0.9080 ca         1 3JR      -0.214000
      5 CBE          6.9680    -2.0060    -0.1190 ca         1 3JR       0.078100
      6 OAX          7.9510    -2.9370    -0.4150 os         1 3JR      -0.321100
      7 CAA          8.7280    -3.5920     0.6030 c3         1 3JR       0.145900
      8 CAK          6.6680    -1.6380     1.2140 ca         1 3JR      -0.132000
      9 CAJ          5.6640    -0.6900     1.4770 ca         1 3JR      -0.194000
     10 CBD          4.9510    -0.0990     0.4140 ca         1 3JR       0.144100
     11 OAZ          3.9570     0.8330     0.6150 os         1 3JR      -0.361100
     12 CAR          3.5330     1.2380     1.9320 c3         1 3JR       0.133600
     13 CAV          2.3630     2.2330     1.7810 c3         1 3JR       0.098000
     14 NBL          1.1860     1.6490     1.0780 n          1 3JR      -0.392800
     15 C            0.1490     1.0280     1.8210 c          1 3JR       0.562000
     16 O            0.0600     1.2180     3.0290 o          1 3JR      -0.550000
     17 CAU          1.1070     1.8410    -0.3970 c3         1 3JR       0.120000
     18 CBJ         -0.2190     2.4440    -0.9560 c3         1 3JR      -0.106700
     19 CBH         -0.6210     3.7850    -0.2640 c3         1 3JR       0.173300
     20 OAG         -1.7240     4.3760    -0.9690 oh         1 3JR      -0.620000
     21 CAP          0.5070     4.8560    -0.2280 c3         1 3JR       0.131600
     22 OAF         -0.0110     6.1040     0.2660 oh         1 3JR      -0.637000
     23 CBK         -1.4130     1.4240    -1.0420 c6         1 3JR       0.241500
     24 CAT         -1.0850     0.1910    -1.9470 c6         1 3JR      -0.096400
     25 CAQ         -0.9200    -1.1520    -1.1880 c6         1 3JR      -0.073400
     26 CB          -0.2980    -0.9880     0.2190 c6         1 3JR      -0.088400
     27 CA          -0.9240     0.1600     1.0860 c6         1 3JR       0.156500
     28 N           -1.8840     1.0040     0.3010 n3         1 3JR      -0.761500
     29 SBN         -3.5540     0.9420     0.6610 sy         1 3JR       1.177600
     30 OAD         -3.6470     0.9990     2.1230 o          1 3JR      -0.514000
     31 OAE         -4.1970     1.9730    -0.1600 o          1 3JR      -0.514000
     32 CBG         -4.0490    -0.6820     0.0730 ca         1 3JR      -0.276500
     33 CAN         -3.9440    -1.8070     0.9200 ca         1 3JR      -0.014000
     34 CBB         -4.3100    -3.0780     0.4460 ca         1 3JR       0.100500
     35 ClA         -4.1660    -4.4800     1.4990 cl         1 3JR      -0.179500
     36 CAL         -4.7860    -3.2350    -0.8660 ca         1 3JR      -0.054000
     37 CBC         -4.8990    -2.1160    -1.7080 ca         1 3JR       0.100500
     38 ClB         -5.4910    -2.3130    -3.3530 cl         1 3JR      -0.179500
     39 CAO         -4.5350    -0.8410    -1.2430 ca         1 3JR      -0.014000
     40 H1           4.8090    -1.4610    -3.5860 h1         1 3JR       0.039700
     41 H2           6.0190    -0.1520    -3.6780 h1         1 3JR       0.039700
     42 H3           6.2850    -1.6760    -4.5500 h1         1 3JR       0.039700
     43 H4           4.6790     0.0130    -1.7040 ha         1 3JR       0.126000
     44 H5           9.4440    -4.2870     0.1450 h1         1 3JR       0.038700
     45 H6           9.2950    -2.8600     1.1920 h1         1 3JR       0.038700
     46 H7           8.0820    -4.1660     1.2790 h1         1 3JR       0.038700
     47 H8           7.2000    -2.0760     2.0540 ha         1 3JR       0.120000
     48 H9           5.4560    -0.4260     2.5100 ha         1 3JR       0.122000
     49 H10          3.1940     0.3730     2.5150 h1         1 3JR       0.052700
     50 H11          4.3550     1.7250     2.4720 h1         1 3JR       0.052700
     51 H12          2.0700     2.5910     2.7760 h1         1 3JR       0.067700
     52 H13          2.7290     3.1080     1.2310 h1         1 3JR       0.067700
     53 H14          1.9200     2.5150    -0.6950 h1         1 3JR       0.050200
     54 H15          1.3370     0.8970    -0.9020 h1         1 3JR       0.050200
     55 H16          0.0160     2.7130    -1.9940 hc         1 3JR       0.049700
     56 H17         -0.9090     3.5680     0.7750 h1         1 3JR       0.101700
     57 H18         -1.6790     5.3290    -0.7260 ho         1 3JR       0.428000
     58 H19          1.3190     4.5140     0.4210 h1         1 3JR       0.015200
     59 H20          0.9170     4.9890    -1.2380 h1         1 3JR       0.015200
     60 H21          0.7450     6.7320     0.3150 ho         1 3JR       0.441000
     61 H22         -2.2120     1.9700    -1.5660 h1         1 3JR       0.089700
     62 H23         -1.8910     0.0710    -2.6840 hc         1 3JR       0.048700
     63 H24         -0.1860     0.3870    -2.5470 hc         1 3JR       0.048700
     64 H25         -1.8930    -1.6450    -1.0950 hc         1 3JR       0.049700
     65 H26         -0.3080    -1.8410    -1.7860 hc         1 3JR       0.049700
     66 H27         -0.4160    -1.9350     0.7630 hc         1 3JR       0.059200
     67 H28          0.7890    -0.8690     0.1320 hc         1 3JR       0.059200
     68 H29         -1.4610    -0.3300     1.9110 h1         1 3JR       0.094700
     69 H30         -3.5740    -1.7050     1.9390 ha         1 3JR       0.155500
     70 H31         -5.0660    -4.2190    -1.2290 ha         1 3JR       0.147000
     71 H32         -4.6220     0.0140    -1.9120 ha         1 3JR       0.155500
@<TRIPOS>BOND
     1     1     2 1   
     2     1    40 1   
     3     1    41 1   
     4     1    42 1   
     5     2     3 1   
     6     3     4 ar  
     7     3     5 ar  
     8     4    10 ar  
     9     4    43 1   
    10     5     6 1   
    11     5     8 ar  
    12     6     7 1   
    13     7    44 1   
    14     7    45 1   
    15     7    46 1   
    16     8     9 ar  
    17     8    47 1   
    18     9    10 ar  
    19     9    48 1   
    20    10    11 1   
    21    11    12 1   
    22    12    13 1   
    23    12    49 1   
    24    12    50 1   
    25    13    14 1   
    26    13    51 1   
    27    13    52 1   
    28    14    15 1   
    29    14    17 1   
    30    15    16 2   
    31    15    27 1   
    32    17    18 1   
    33    17    53 1   
    34    17    54 1   
    35    18    19 1   
    36    18    23 1   
    37    18    55 1   
    38    19    20 1   
    39    19    21 1   
    40    19    56 1   
    41    20    57 1   
    42    21    22 1   
    43    21    58 1   
    44    21    59 1   
    45    22    60 1   
    46    23    24 1   
    47    23    28 1   
    48    23    61 1   
    49    24    25 1   
    50    24    62 1   
    51    24    63 1   
    52    25    26 1   
    53    25    64 1   
    54    25    65 1   
    55    26    27 1   
    56    26    66 1   
    57    26    67 1   
    58    27    28 1   
    59    27    68 1   
    60    28    29 1   
    61    29    30 2   
    62    29    31 2   
    63    29    32 1   
    64    32    33 ar  
    65    32    39 ar  
    66    33    34 ar  
    67    33    69 1   
    68    34    35 1   
    69    34    36 ar  
    70    36    37 ar  
    71    36    70 1   
    72    37    38 1   
    73    37    39 ar  
    74    39    71 1   
@<TRIPOS>SUBSTRUCTURE
     1 3JR         1 TEMP              0 ****  ****    0 ROOT
