@<TRIPOS>MOLECULE
3JR
   71    74     1     0     0
SMALL
abcg2


@<TRIPOS>ATOM
      1 CAB          5.6380    -1.2910    -3.4190 c3         1 3JR       0.145900
      2 OAY          6.3300    -1.8290    -2.3110 os         1 3JR      -0.318100
      3 CBF          6.0450    -1.3510    -1.0870 ca         1 3JR       0.148100
      4 CAM          5.1050    -0.3710    -0.8290 ca         1 3JR      -0.214000
      5 CBE          6.7760    -1.9230    -0.0230 ca         1 3JR       0.078100
      6 OAX          7.6690    -2.8760    -0.3700 os         1 3JR      -0.321100
      7 CAA          8.3990    -3.4970     0.6660 c3         1 3JR       0.145900
      8 CAK          6.5350    -1.4800     1.2610 ca         1 3JR      -0.132000
      9 CAJ          5.5880    -0.4850     1.5270 ca         1 3JR      -0.194000
     10 CBD          4.8720     0.0660     0.4810 ca         1 3JR       0.144100
     11 OAZ          3.9340     1.0300     0.6120 os         1 3JR      -0.361100
     12 CAR          3.5090     1.3880     1.9120 c3         1 3JR       0.133600
     13 CAV          2.3010     2.2930     1.7740 c3         1 3JR       0.098000
     14 NBL          1.1980     1.6750     1.0470 n          1 3JR      -0.392800
     15 C            0.4970     0.7240     1.7060 c          1 3JR       0.562000
     16 O            0.6970     0.4730     2.8860 o          1 3JR      -0.550000
     17 CAU          1.1320     1.8990    -0.3970 c3         1 3JR       0.120000
     18 CBJ         -0.2010     2.3790    -0.9740 c3         1 3JR      -0.106700
     19 CBH         -0.7590     3.6550    -0.3240 c3         1 3JR       0.173300
     20 OAG         -1.8980     4.1090    -1.0220 oh         1 3JR      -0.620000
     21 CAP          0.2790     4.7640    -0.2270 c3         1 3JR       0.131600
     22 OAF         -0.3300     5.8980     0.3420 oh         1 3JR      -0.637000
     23 CBK         -1.2650     1.2740    -1.0380 c6         1 3JR       0.241500
     24 CAT         -0.8900     0.1170    -1.9940 c6         1 3JR      -0.096400
     25 CAQ         -0.7580    -1.2290    -1.2930 c6         1 3JR      -0.073400
     26 CB           0.0760    -1.1020    -0.0310 c6         1 3JR      -0.088400
     27 CA          -0.5520    -0.0830     0.9490 c6         1 3JR       0.156500
     28 N           -1.5380     0.7860     0.3160 n3         1 3JR      -0.761500
     29 SBN         -3.0670     0.8090     0.9180 sy         1 3JR       1.177600
     30 OAD         -2.9760     0.6040     2.3520 o          1 3JR      -0.514000
     31 OAE         -3.7420     1.9800     0.3930 o          1 3JR      -0.514000
     32 CBG         -3.8720    -0.6160     0.2190 ca         1 3JR      -0.276500
     33 CAN         -3.8530    -1.8140     0.9170 ca         1 3JR      -0.014000
     34 CBB         -4.3910    -2.9330     0.3000 ca         1 3JR       0.100500
     35 CLA         -4.3850    -4.4400     1.1370 cl         1 3JR      -0.179500
     36 CAL         -4.9370    -2.8720    -0.9720 ca         1 3JR      -0.054000
     37 CBC         -4.9470    -1.6510    -1.6300 ca         1 3JR       0.100500
     38 CLB         -5.6330    -1.5560    -3.2080 cl         1 3JR      -0.179500
     39 CAO         -4.4240    -0.5080    -1.0490 ca         1 3JR      -0.014000
     40 H1           4.5590    -1.4500    -3.3440 h1         1 3JR       0.039700
     41 H2           5.8280    -0.2210    -3.5370 h1         1 3JR       0.039700
     42 H3           6.0090    -1.8120    -4.2980 h1         1 3JR       0.039700
     43 H4           4.5300     0.0760    -1.6290 ha         1 3JR       0.126000
     44 H5           9.0460    -4.2320     0.1930 h1         1 3JR       0.038700
     45 H6           9.0210    -2.7840     1.2140 h1         1 3JR       0.038700
     46 H7           7.7450    -4.0080     1.3780 h1         1 3JR       0.038700
     47 H8           7.0820    -1.8950     2.0970 ha         1 3JR       0.120000
     48 H9           5.4460    -0.1680     2.5500 ha         1 3JR       0.122000
     49 H10          3.2540     0.4970     2.4930 h1         1 3JR       0.052700
     50 H11          4.2960     1.9260     2.4530 h1         1 3JR       0.052700
     51 H12          1.9750     2.5880     2.7710 h1         1 3JR       0.067700
     52 H13          2.5840     3.2080     1.2530 h1         1 3JR       0.067700
     53 H14          1.8900     2.6430    -0.6280 h1         1 3JR       0.050200
     54 H15          1.4540     1.0110    -0.9430 h1         1 3JR       0.050200
     55 H16          0.0340     2.6230    -2.0180 hc         1 3JR       0.049700
     56 H17         -1.1080     3.4200     0.6860 h1         1 3JR       0.101700
     57 H18         -1.6220     4.3900    -1.9020 ho         1 3JR       0.428000
     58 H19          1.1240     4.4310     0.3830 h1         1 3JR       0.015200
     59 H20          0.6800     4.9770    -1.2300 h1         1 3JR       0.015200
     60 H21          0.3500     6.5650     0.4710 ho         1 3JR       0.441000
     61 H22         -2.1730     1.7450    -1.4050 h1         1 3JR       0.089700
     62 H23         -1.6380     0.0500    -2.7860 hc         1 3JR       0.048700
     63 H24          0.0540     0.3490    -2.4930 hc         1 3JR       0.048700
     64 H25         -1.7420    -1.6380    -1.0500 hc         1 3JR       0.049700
     65 H26         -0.2930    -1.9470    -1.9690 hc         1 3JR       0.049700
     66 H27          0.1470    -2.0610     0.4830 hc         1 3JR       0.059200
     67 H28          1.1010    -0.8310    -0.2940 hc         1 3JR       0.059200
     68 H29         -1.0540    -0.6540     1.7260 h1         1 3JR       0.094700
     69 H30         -3.4390    -1.8840     1.9130 ha         1 3JR       0.155500
     70 H31         -5.3500    -3.7550    -1.4390 ha         1 3JR       0.147000
     71 H32         -4.4550     0.4350    -1.5770 ha         1 3JR       0.155500
@<TRIPOS>BOND
     1     1     2 1   
     2     1    40 1   
     3     1    41 1   
     4     1    42 1   
     5     2     3 1   
     6     3     4 ar  
     7     3     5 ar  
     8     4    10 ar  
     9     4    43 1   
    10     5     6 1   
    11     5     8 ar  
    12     6     7 1   
    13     7    44 1   
    14     7    45 1   
    15     7    46 1   
    16     8     9 ar  
    17     8    47 1   
    18     9    10 ar  
    19     9    48 1   
    20    10    11 1   
    21    11    12 1   
    22    12    13 1   
    23    12    49 1   
    24    12    50 1   
    25    13    14 1   
    26    13    51 1   
    27    13    52 1   
    28    14    15 1   
    29    14    17 1   
    30    15    16 2   
    31    15    27 1   
    32    17    18 1   
    33    17    53 1   
    34    17    54 1   
    35    18    19 1   
    36    18    23 1   
    37    18    55 1   
    38    19    20 1   
    39    19    21 1   
    40    19    56 1   
    41    20    57 1   
    42    21    22 1   
    43    21    58 1   
    44    21    59 1   
    45    22    60 1   
    46    23    24 1   
    47    23    28 1   
    48    23    61 1   
    49    24    25 1   
    50    24    62 1   
    51    24    63 1   
    52    25    26 1   
    53    25    64 1   
    54    25    65 1   
    55    26    27 1   
    56    26    66 1   
    57    26    67 1   
    58    27    28 1   
    59    27    68 1   
    60    28    29 1   
    61    29    30 2   
    62    29    31 2   
    63    29    32 1   
    64    32    33 ar  
    65    32    39 ar  
    66    33    34 ar  
    67    33    69 1   
    68    34    35 1   
    69    34    36 ar  
    70    36    37 ar  
    71    36    70 1   
    72    37    38 1   
    73    37    39 ar  
    74    39    71 1   
@<TRIPOS>SUBSTRUCTURE
     1 3JR         1 TEMP              0 ****  ****    0 ROOT
