@<TRIPOS>MOLECULE
3JS
   61    64     1     0     0
SMALL
bcc


@<TRIPOS>ATOM
      1 CAA          7.6210     1.4550    -0.7230 c3         1 3JS      -0.172100
      2 CAU          6.4780     0.5060    -0.4670 c          1 3JS       0.684100
      3 OAC          6.3940    -0.5850    -1.0180 o          1 3JS      -0.604100
      4 NBF          5.5520     0.9070     0.4210 n          1 3JS      -0.465800
      5 CAP          5.5470     2.1410     1.1870 c5         1 3JS       0.073000
      6 CBC          4.7020     1.7760     2.4040 c5         1 3JS       0.129100
      7 OAG          5.4290     1.0210     3.3450 oh         1 3JS      -0.590800
      8 CAO          3.6480     0.8660     1.7940 c5         1 3JS      -0.085400
      9 CBE          4.4240     0.0590     0.7360 c5         1 3JS       0.043700
     10 CAW          3.5320    -0.1580    -0.4750 c          1 3JS       0.684100
     11 OAE          3.4930     0.6520    -1.3890 o          1 3JS      -0.594100
     12 N            2.7190    -1.2250    -0.4420 n          1 3JS      -0.456800
     13 CD2          2.6610    -2.2750     0.5630 c5         1 3JS       0.072000
     14 CG           1.9130    -3.3870    -0.1630 c5         1 3JS       0.135100
     15 OD1          2.7400    -4.0780    -1.0690 oh         1 3JS      -0.586800
     16 CB           0.8910    -2.6030    -0.9690 c5         1 3JS      -0.085400
     17 CA           1.6500    -1.3390    -1.4120 c5         1 3JS       0.035700
     18 C            0.7220    -0.1340    -1.3390 c          1 3JS       0.664100
     19 O            0.5430     0.4820    -0.3020 o          1 3JS      -0.597100
     20 NAS          0.0570     0.1320    -2.4730 ns         1 3JS      -0.570900
     21 CAM         -1.0020     1.1120    -2.5160 c3         1 3JS       0.154300
     22 CAX         -2.1950     0.7300    -1.6750 ca         1 3JS      -0.090300
     23 CAI         -2.7080    -0.5640    -1.7100 ca         1 3JS      -0.114000
     24 CAK         -3.8120    -0.9110    -0.9510 ca         1 3JS      -0.114000
     25 CAH         -2.8170     1.6660    -0.8590 ca         1 3JS      -0.114000
     26 CAJ         -3.9210     1.3240    -0.0920 ca         1 3JS      -0.114000
     27 CAZ         -4.4400     0.0300    -0.1300 ca         1 3JS      -0.007000
     28 CBA         -5.5960    -0.3410     0.6860 cc         1 3JS      -0.099400
     29 SAT         -5.6170    -1.8310     1.5610 ss         1 3JS      -0.180300
     30 CAL         -7.1760    -1.4450     2.1530 cc         1 3JS       0.413300
     31 NAR         -7.6460    -0.3130     1.7440 nd         1 3JS      -0.637000
     32 CAY         -6.7700     0.3290     0.9110 cd         1 3JS       0.364600
     33 CAB         -7.1710     1.6410     0.3240 c3         1 3JS      -0.121400
     34 H1           7.2730     2.4690    -0.9250 hc         1 3JS       0.058700
     35 H2           8.2790     1.5050     0.1470 hc         1 3JS       0.058700
     36 H3           8.2040     1.1080    -1.5720 hc         1 3JS       0.058700
     37 H4           6.5530     2.4570     1.4620 h1         1 3JS       0.053700
     38 H5           5.0770     2.9570     0.6300 h1         1 3JS       0.053700
     39 H6           4.2590     2.6700     2.8570 h1         1 3JS       0.051700
     40 H7           6.1430     1.5660     3.6910 ho         1 3JS       0.404000
     41 H8           3.1580     0.2300     2.5300 hc         1 3JS       0.078200
     42 H9           2.8780     1.4770     1.3200 hc         1 3JS       0.078200
     43 H10          4.7760    -0.8880     1.1500 h1         1 3JS       0.079700
     44 H11          3.6520    -2.5910     0.8860 h1         1 3JS       0.056700
     45 H12          2.1010    -1.9560     1.4480 h1         1 3JS       0.056700
     46 H13          1.4360    -4.0680     0.5510 h1         1 3JS       0.048700
     47 H14          3.4310    -4.5290    -0.5740 ho         1 3JS       0.409000
     48 H15          0.4910    -3.1650    -1.8120 hc         1 3JS       0.068700
     49 H16          0.0540    -2.3420    -0.3170 hc         1 3JS       0.068700
     50 H17          2.0510    -1.4550    -2.4240 h1         1 3JS       0.086700
     51 H18          0.2590    -0.3960    -3.3050 hn         1 3JS       0.320500
     52 H19         -0.6280     2.0900    -2.2050 h1         1 3JS       0.058200
     53 H20         -1.3020     1.2100    -3.5600 h1         1 3JS       0.058200
     54 H21         -2.2410    -1.3160    -2.3350 ha         1 3JS       0.131500
     55 H22         -4.1970    -1.9220    -1.0080 ha         1 3JS       0.136000
     56 H23         -2.4260     2.6750    -0.8020 ha         1 3JS       0.131500
     57 H24         -4.3600     2.0630     0.5650 ha         1 3JS       0.136000
     58 H25         -7.7030    -2.1160     2.8170 h5         1 3JS       0.052100
     59 H26         -7.0430     2.4530     1.0420 hc         1 3JS       0.051367
     60 H27         -6.5900     1.8890    -0.5620 hc         1 3JS       0.051367
     61 H28         -8.2250     1.6200     0.0440 hc         1 3JS       0.051367
@<TRIPOS>BOND
     1     1     2 1   
     2     1    34 1   
     3     1    35 1   
     4     1    36 1   
     5     2     3 2   
     6     2     4 1   
     7     4     5 1   
     8     4     9 1   
     9     5     6 1   
    10     5    37 1   
    11     5    38 1   
    12     6     7 1   
    13     6     8 1   
    14     6    39 1   
    15     7    40 1   
    16     8     9 1   
    17     8    41 1   
    18     8    42 1   
    19     9    10 1   
    20     9    43 1   
    21    10    11 2   
    22    10    12 1   
    23    12    13 1   
    24    12    17 1   
    25    13    14 1   
    26    13    44 1   
    27    13    45 1   
    28    14    15 1   
    29    14    16 1   
    30    14    46 1   
    31    15    47 1   
    32    16    17 1   
    33    16    48 1   
    34    16    49 1   
    35    17    18 1   
    36    17    50 1   
    37    18    19 2   
    38    18    20 1   
    39    20    21 1   
    40    20    51 1   
    41    21    22 1   
    42    21    52 1   
    43    21    53 1   
    44    22    23 ar  
    45    22    25 ar  
    46    23    24 ar  
    47    23    54 1   
    48    24    27 ar  
    49    24    55 1   
    50    25    26 ar  
    51    25    56 1   
    52    26    27 ar  
    53    26    57 1   
    54    27    28 1   
    55    28    29 1   
    56    28    32 2   
    57    29    30 1   
    58    30    31 2   
    59    30    58 1   
    60    31    32 1   
    61    32    33 1   
    62    33    59 1   
    63    33    60 1   
    64    33    61 1   
@<TRIPOS>SUBSTRUCTURE
     1 3JS         1 TEMP              0 ****  ****    0 ROOT
