@<TRIPOS>MOLECULE
3JS
   61    64     1     0     0
SMALL
No Charge or Current Charge


@<TRIPOS>ATOM
      1 CAA          7.8490     1.9620    -1.1490 c3         1 3JS      -0.172100
      2 CAU          6.8260     0.8760    -0.8110 c          1 3JS       0.617100
      3 OAC          6.7620    -0.1490    -1.4770 o          1 3JS      -0.604100
      4 NBF          5.9450     1.0980     0.2670 n          1 3JS      -0.398800
      5 CAP          6.1590     2.1380     1.3020 c5         1 3JS       0.073000
      6 CBC          5.3200     1.6070     2.5050 c5         1 3JS       0.152300
      7 OAG          6.0440     0.6670     3.3060 oh         1 3JS      -0.653000
      8 CAO          4.1360     0.9260     1.7770 c5         1 3JS      -0.085400
      9 CBE          4.8370     0.1610     0.6090 c5         1 3JS       0.043700
     10 CAW          3.7810    -0.0890    -0.5280 c          1 3JS       0.617100
     11 OAE          3.6910     0.5400    -1.5790 o          1 3JS      -0.594100
     12 N            2.8210    -1.0670    -0.1690 n          1 3JS      -0.389800
     13 CD2          3.1070    -2.2200     0.7270 c5         1 3JS       0.072000
     14 CG           2.0100    -3.2600     0.3410 c5         1 3JS       0.158300
     15 OD1          2.4210    -4.1150    -0.7310 oh         1 3JS      -0.649000
     16 CB           0.8480    -2.3350    -0.0950 c5         1 3JS      -0.085400
     17 CA           1.5780    -1.2680    -0.9640 c5         1 3JS       0.035700
     18 C            0.6560    -0.0140    -1.0820 c          1 3JS       0.597100
     19 O            0.6800     0.9960    -0.3890 o          1 3JS      -0.597100
     20 NAS         -0.2310    -0.1970    -2.1220 ns         1 3JS      -0.503900
     21 CAM         -1.2840     0.7490    -2.4850 c3         1 3JS       0.154300
     22 CAX         -2.5890     0.4160    -1.7770 ca         1 3JS      -0.090300
     23 CAI         -3.5140    -0.4650    -2.3690 ca         1 3JS      -0.096000
     24 CAK         -4.7150    -0.7800    -1.7090 ca         1 3JS      -0.096000
     25 CAH         -2.8750     0.9700    -0.5160 ca         1 3JS      -0.096000
     26 CAJ         -4.0760     0.6540     0.1430 ca         1 3JS      -0.096000
     27 CAZ         -5.0090    -0.2150    -0.4540 ca         1 3JS      -0.007000
     28 CBA         -6.2570    -0.5620     0.2240 cc         1 3JS      -0.179000
     29 SAT         -6.8380    -2.1810     0.4580 ss         1 3JS      -0.035400
     30 CAL         -8.2370    -1.4700     1.2230 cc         1 3JS       0.413300
     31 NAR         -8.2850    -0.1410     1.2660 nd         1 3JS      -0.637000
     32 CAY         -7.1460     0.3920     0.6780 cd         1 3JS       0.299300
     33 CAB         -7.0130     1.8890     0.5800 c3         1 3JS      -0.121400
     34 H1           7.3550     2.9390    -1.1640 hc         1 3JS       0.058700
     35 H2           8.5530     2.0580    -0.3150 hc         1 3JS       0.058700
     36 H3           8.3830     1.7570    -2.0840 hc         1 3JS       0.058700
     37 H4           7.2170     2.2560     1.5690 h1         1 3JS       0.053700
     38 H5           5.7820     3.1090     0.9540 h1         1 3JS       0.053700
     39 H6           4.9700     2.4370     3.1360 h1         1 3JS       0.051700
     40 H7           6.7610     1.1650     3.7580 ho         1 3JS       0.443000
     41 H8           3.5590     0.2680     2.4350 hc         1 3JS       0.078200
     42 H9           3.4400     1.6820     1.3930 hc         1 3JS       0.078200
     43 H10          5.2590    -0.7940     0.9450 h1         1 3JS       0.079700
     44 H11          4.1160    -2.6270     0.5740 h1         1 3JS       0.056700
     45 H12          3.0100    -1.9260     1.7800 h1         1 3JS       0.056700
     46 H13          1.7230    -3.8700     1.2100 h1         1 3JS       0.048700
     47 H14          3.1020    -4.7240    -0.3690 ho         1 3JS       0.448000
     48 H15          0.0670    -2.8690    -0.6480 hc         1 3JS       0.068700
     49 H16          0.3700    -1.8790     0.7810 hc         1 3JS       0.068700
     50 H17          1.8170    -1.6450    -1.9670 h1         1 3JS       0.086700
     51 H18         -0.1720    -1.0690    -2.6340 hn         1 3JS       0.320500
     52 H19         -0.9700     1.7700    -2.2330 h1         1 3JS       0.058200
     53 H20         -1.4330     0.7090    -3.5730 h1         1 3JS       0.058200
     54 H21         -3.3040    -0.9080    -3.3390 ha         1 3JS       0.113500
     55 H22         -5.4220    -1.4610    -2.1770 ha         1 3JS       0.118000
     56 H23         -2.1620     1.6410    -0.0410 ha         1 3JS       0.113500
     57 H24         -4.2730     1.0780     1.1240 ha         1 3JS       0.118000
     58 H25         -9.0060    -2.1230     1.6170 h5         1 3JS       0.052100
     59 H26         -6.4140     2.2830     1.4080 hc         1 3JS       0.051367
     60 H27         -6.5320     2.1840    -0.3600 hc         1 3JS       0.051367
     61 H28         -7.9930     2.3790     0.6150 hc         1 3JS       0.051367
@<TRIPOS>BOND
     1     1     2 1   
     2     1    34 1   
     3     1    35 1   
     4     1    36 1   
     5     2     3 2   
     6     2     4 1   
     7     4     5 1   
     8     4     9 1   
     9     5     6 1   
    10     5    37 1   
    11     5    38 1   
    12     6     7 1   
    13     6     8 1   
    14     6    39 1   
    15     7    40 1   
    16     8     9 1   
    17     8    41 1   
    18     8    42 1   
    19     9    10 1   
    20     9    43 1   
    21    10    11 2   
    22    10    12 1   
    23    12    13 1   
    24    12    17 1   
    25    13    14 1   
    26    13    44 1   
    27    13    45 1   
    28    14    15 1   
    29    14    16 1   
    30    14    46 1   
    31    15    47 1   
    32    16    17 1   
    33    16    48 1   
    34    16    49 1   
    35    17    18 1   
    36    17    50 1   
    37    18    19 2   
    38    18    20 1   
    39    20    21 1   
    40    20    51 1   
    41    21    22 1   
    42    21    52 1   
    43    21    53 1   
    44    22    23 ar  
    45    22    25 ar  
    46    23    24 ar  
    47    23    54 1   
    48    24    27 ar  
    49    24    55 1   
    50    25    26 ar  
    51    25    56 1   
    52    26    27 ar  
    53    26    57 1   
    54    27    28 1   
    55    28    29 1   
    56    28    32 2   
    57    29    30 1   
    58    30    31 2   
    59    30    58 1   
    60    31    32 1   
    61    32    33 1   
    62    33    59 1   
    63    33    60 1   
    64    33    61 1   
@<TRIPOS>SUBSTRUCTURE
     1 3JS         1 TEMP              0 ****  ****    0 ROOT
