@<TRIPOS>MOLECULE
3JT
   55    57     1     0     0
SMALL
abcg2


@<TRIPOS>ATOM
      1 CAA          7.9010    -0.5830    -0.9070 c3         1 3JT      -0.087433
      2 CBB          6.6070    -1.1480    -0.3090 c3         1 3JT      -0.027000
      3 CAB          6.1110    -2.2820    -1.2070 c3         1 3JT      -0.087433
      4 CAC          6.9220    -1.6670     1.0950 c3         1 3JT      -0.087433
      5 CAN          5.6030     0.0130    -0.2710 c3         1 3JT      -0.142400
      6 CAT          4.2090    -0.2560     0.2540 c          1 3JT       0.619100
      7 OAD          3.8490    -1.3110     0.7630 o          1 3JT      -0.603100
      8 N            3.3410     0.7690     0.1450 n          1 3JT      -0.403800
      9 CD2          3.6040     2.0980    -0.3810 c5         1 3JT       0.072000
     10 CG           2.5130     2.9430     0.2680 c5         1 3JT       0.153300
     11 OD1          2.8190     3.2680     1.6040 oh         1 3JT      -0.652000
     12 CB           1.3400     1.9770     0.2820 c5         1 3JT      -0.084400
     13 CA           1.9850     0.6270     0.6330 c5         1 3JT       0.036700
     14 C            1.2450    -0.5020    -0.0710 c          1 3JT       0.606100
     15 O            1.4050    -0.7280    -1.2590 o          1 3JT      -0.599100
     16 NAR          0.3590    -1.1430     0.7060 ns         1 3JT      -0.496900
     17 CAM         -0.6040    -2.1080     0.2220 c3         1 3JT       0.145300
     18 CAV         -1.9830    -1.5130     0.0880 ca         1 3JT      -0.108300
     19 CAH         -2.2240    -0.4710    -0.8060 ca         1 3JT      -0.096000
     20 CAJ         -3.4800     0.1000    -0.9090 ca         1 3JT      -0.100000
     21 CAG         -3.0380    -1.9730     0.8660 ca         1 3JT      -0.096000
     22 CAI         -4.3020    -1.4130     0.7600 ca         1 3JT      -0.100000
     23 CAW         -4.5410    -0.3600    -0.1240 ca         1 3JT      -0.004000
     24 CAX         -5.8680     0.2430    -0.2040 cc         1 3JT      -0.177000
     25 SAS         -6.4530     1.0390    -1.6190 ss         1 3JT      -0.027400
     26 CAK         -7.9290     1.3700    -0.8090 cc         1 3JT       0.409300
     27 NAQ         -7.9940     0.9290     0.4050 nd         1 3JT      -0.630000
     28 CAL         -6.8410     0.2950     0.7540 cd         1 3JT       0.274900
     29 H1           7.7460    -0.2100    -1.9230 hc         1 3JT       0.037033
     30 H2           8.2860     0.2430    -0.3050 hc         1 3JT       0.037033
     31 H3           8.6750    -1.3510    -0.9510 hc         1 3JT       0.037033
     32 H4           6.8720    -3.0600    -1.2980 hc         1 3JT       0.037033
     33 H5           5.2060    -2.7460    -0.8180 hc         1 3JT       0.037033
     34 H6           5.8950    -1.9160    -2.2140 hc         1 3JT       0.037033
     35 H7           7.7100    -2.4210     1.0520 hc         1 3JT       0.037033
     36 H8           7.2800    -0.8570     1.7360 hc         1 3JT       0.037033
     37 H9           6.0550    -2.1170     1.5730 hc         1 3JT       0.037033
     38 H10          6.0310     0.8220     0.3340 hc         1 3JT       0.054200
     39 H11          5.5110     0.4320    -1.2800 hc         1 3JT       0.054200
     40 H12          4.6040     2.4510    -0.1270 h1         1 3JT       0.053200
     41 H13          3.5050     2.1250    -1.4710 h1         1 3JT       0.053200
     42 H14          2.3010     3.8380    -0.3280 h1         1 3JT       0.051700
     43 H15          3.6060     3.8220     1.6130 ho         1 3JT       0.445000
     44 H16          0.5550     2.2620     0.9810 hc         1 3JT       0.071700
     45 H17          0.9050     1.9420    -0.7190 hc         1 3JT       0.071700
     46 H18          1.9810     0.4670     1.7160 h1         1 3JT       0.076700
     47 H19          0.2870    -0.8740     1.6740 hn         1 3JT       0.315500
     48 H20         -0.2560    -2.4870    -0.7390 h1         1 3JT       0.068700
     49 H21         -0.6290    -2.9540     0.9090 h1         1 3JT       0.068700
     50 H22         -1.4230    -0.0980    -1.4320 ha         1 3JT       0.120500
     51 H23         -3.6260     0.9210    -1.6000 ha         1 3JT       0.117500
     52 H24         -2.8780    -2.7850     1.5650 ha         1 3JT       0.120500
     53 H25         -5.1080    -1.8080     1.3640 ha         1 3JT       0.117500
     54 H26         -8.7250     1.9090    -1.3050 h5         1 3JT       0.053100
     55 H27         -6.7380    -0.1130     1.7500 h4         1 3JT       0.043100
@<TRIPOS>BOND
     1     1     2 1   
     2     1    29 1   
     3     1    30 1   
     4     1    31 1   
     5     2     3 1   
     6     2     4 1   
     7     2     5 1   
     8     3    32 1   
     9     3    33 1   
    10     3    34 1   
    11     4    35 1   
    12     4    36 1   
    13     4    37 1   
    14     5     6 1   
    15     5    38 1   
    16     5    39 1   
    17     6     7 2   
    18     6     8 1   
    19     8     9 1   
    20     8    13 1   
    21     9    10 1   
    22     9    40 1   
    23     9    41 1   
    24    10    11 1   
    25    10    12 1   
    26    10    42 1   
    27    11    43 1   
    28    12    13 1   
    29    12    44 1   
    30    12    45 1   
    31    13    14 1   
    32    13    46 1   
    33    14    15 2   
    34    14    16 1   
    35    16    17 1   
    36    16    47 1   
    37    17    18 1   
    38    17    48 1   
    39    17    49 1   
    40    18    19 ar  
    41    18    21 ar  
    42    19    20 ar  
    43    19    50 1   
    44    20    23 ar  
    45    20    51 1   
    46    21    22 ar  
    47    21    52 1   
    48    22    23 ar  
    49    22    53 1   
    50    23    24 1   
    51    24    25 1   
    52    24    28 2   
    53    25    26 1   
    54    26    27 2   
    55    26    54 1   
    56    27    28 1   
    57    28    55 1   
@<TRIPOS>SUBSTRUCTURE
     1 3JT         1 TEMP              0 ****  ****    0 ROOT
