@<TRIPOS>MOLECULE
3JT
   55    57     1     0     0
SMALL
No Charge or Current Charge


@<TRIPOS>ATOM
      1 CAA          8.0940    -1.2130     0.2620 c3         1 3JT      -0.087433
      2 CBB          6.5820    -1.5060     0.4590 c3         1 3JT      -0.027000
      3 CAB          6.1510    -2.5660    -0.5910 c3         1 3JT      -0.087433
      4 CAC          6.3820    -2.0640     1.8940 c3         1 3JT      -0.087433
      5 CAN          5.8010    -0.1670     0.2530 c3         1 3JT      -0.142400
      6 CAT          4.2510    -0.1630     0.2950 c          1 3JT       0.619100
      7 OAD          3.5970    -1.1070     0.7200 o          1 3JT      -0.603100
      8 N            3.5880     0.9870    -0.1890 n          1 3JT      -0.403800
      9 CD2          4.2540     2.2960    -0.3970 c5         1 3JT       0.072000
     10 CG           3.0600     3.3010    -0.3930 c5         1 3JT       0.153300
     11 OD1          2.7060     3.7260     0.9280 oh         1 3JT      -0.652000
     12 CB           1.9380     2.4420    -1.0260 c5         1 3JT      -0.084400
     13 CA           2.1040     1.0690    -0.3050 c5         1 3JT       0.036700
     14 C            1.4350    -0.0330    -1.1890 c          1 3JT       0.606100
     15 O            1.9630    -0.7250    -2.0530 o          1 3JT      -0.599100
     16 NAR          0.1010    -0.1340    -0.8630 ns         1 3JT      -0.496900
     17 CAM         -0.8290    -1.0640    -1.4960 c3         1 3JT       0.145300
     18 CAV         -2.2340    -0.8880    -0.9430 ca         1 3JT      -0.108300
     19 CAH         -3.1160     0.0390    -1.5260 ca         1 3JT      -0.096000
     20 CAJ         -4.4130     0.2060    -1.0120 ca         1 3JT      -0.100000
     21 CAG         -2.6630    -1.6450     0.1620 ca         1 3JT      -0.096000
     22 CAI         -3.9610    -1.4770     0.6770 ca         1 3JT      -0.100000
     23 CAW         -4.8500    -0.5470     0.0980 ca         1 3JT      -0.004000
     24 CAX         -6.2080    -0.3620     0.6190 cc         1 3JT      -0.177000
     25 SAS         -7.5710     0.2380    -0.2790 ss         1 3JT      -0.027400
     26 CAK         -8.5000     0.0770     1.1900 cc         1 3JT       0.409300
     27 NAQ         -7.8500    -0.3690     2.2630 nd         1 3JT      -0.630000
     28 CAL         -6.5220    -0.6180     1.9370 cd         1 3JT       0.274900
     29 H1           8.2930    -0.8280    -0.7460 hc         1 3JT       0.037033
     30 H2           8.4470    -0.4670     0.9840 hc         1 3JT       0.037033
     31 H3           8.6940    -2.1220     0.3970 hc         1 3JT       0.037033
     32 H4           6.7680    -3.4700    -0.5080 hc         1 3JT       0.037033
     33 H5           5.1070    -2.8690    -0.4570 hc         1 3JT       0.037033
     34 H6           6.2620    -2.1750    -1.6100 hc         1 3JT       0.037033
     35 H7           7.0200    -2.9400     2.0640 hc         1 3JT       0.037033
     36 H8           6.6410    -1.3090     2.6470 hc         1 3JT       0.037033
     37 H9           5.3480    -2.3780     2.0720 hc         1 3JT       0.037033
     38 H10          6.1380     0.5880     0.9730 hc         1 3JT       0.054200
     39 H11          6.0980     0.3080    -0.6900 hc         1 3JT       0.054200
     40 H12          4.9810     2.5280     0.3930 h1         1 3JT       0.053200
     41 H13          4.7780     2.3110    -1.3620 h1         1 3JT       0.053200
     42 H14          3.2840     4.1780    -1.0160 h1         1 3JT       0.051700
     43 H15          3.4450     4.2840     1.2590 ho         1 3JT       0.445000
     44 H16          0.9420     2.8750    -0.8850 hc         1 3JT       0.071700
     45 H17          2.0960     2.3470    -2.1070 hc         1 3JT       0.071700
     46 H18          1.6420     1.0710     0.6910 h1         1 3JT       0.076700
     47 H19         -0.2510     0.4790    -0.1370 hn         1 3JT       0.315500
     48 H20         -0.8300    -0.8870    -2.5810 h1         1 3JT       0.068700
     49 H21         -0.4830    -2.0910    -1.3210 h1         1 3JT       0.068700
     50 H22         -2.7960     0.6350    -2.3790 ha         1 3JT       0.120500
     51 H23         -5.0750     0.9320    -1.4770 ha         1 3JT       0.117500
     52 H24         -1.9920    -2.3660     0.6230 ha         1 3JT       0.120500
     53 H25         -4.2700    -2.0870     1.5220 ha         1 3JT       0.117500
     54 H26         -9.5490     0.3450     1.1780 h5         1 3JT       0.053100
     55 H27         -5.8460    -0.9740     2.7040 h4         1 3JT       0.043100
@<TRIPOS>BOND
     1     1     2 1   
     2     1    29 1   
     3     1    30 1   
     4     1    31 1   
     5     2     3 1   
     6     2     4 1   
     7     2     5 1   
     8     3    32 1   
     9     3    33 1   
    10     3    34 1   
    11     4    35 1   
    12     4    36 1   
    13     4    37 1   
    14     5     6 1   
    15     5    38 1   
    16     5    39 1   
    17     6     7 2   
    18     6     8 1   
    19     8     9 1   
    20     8    13 1   
    21     9    10 1   
    22     9    40 1   
    23     9    41 1   
    24    10    11 1   
    25    10    12 1   
    26    10    42 1   
    27    11    43 1   
    28    12    13 1   
    29    12    44 1   
    30    12    45 1   
    31    13    14 1   
    32    13    46 1   
    33    14    15 2   
    34    14    16 1   
    35    16    17 1   
    36    16    47 1   
    37    17    18 1   
    38    17    48 1   
    39    17    49 1   
    40    18    19 ar  
    41    18    21 ar  
    42    19    20 ar  
    43    19    50 1   
    44    20    23 ar  
    45    20    51 1   
    46    21    22 ar  
    47    21    52 1   
    48    22    23 ar  
    49    22    53 1   
    50    23    24 1   
    51    24    25 1   
    52    24    28 2   
    53    25    26 1   
    54    26    27 2   
    55    26    54 1   
    56    27    28 1   
    57    28    55 1   
@<TRIPOS>SUBSTRUCTURE
     1 3JT         1 TEMP              0 ****  ****    0 ROOT
