@<TRIPOS>MOLECULE
3JU
   58    60     1     0     0
SMALL
bcc


@<TRIPOS>ATOM
      1 CAB         -5.5200     2.9890    -0.4270 c3         1 3JU      -0.087433
      2 CBC         -6.0630     1.9600     0.5660 c3         1 3JU      -0.028000
      3 CAC         -5.6420     2.3200     1.9930 c3         1 3JU      -0.087433
      4 CAD         -7.5940     1.9830     0.4970 c3         1 3JU      -0.087433
      5 CAN         -5.6300     0.5330     0.1980 c3         1 3JU      -0.143400
      6 CAT         -4.1560     0.1970     0.2480 c          1 3JU       0.687100
      7 OAE         -3.2600     1.0140     0.4200 o          1 3JU      -0.605100
      8 N           -3.8540    -1.1090     0.0930 n          1 3JU      -0.472800
      9 CD2         -4.7760    -2.1920    -0.1950 c5         1 3JU       0.073000
     10 CG          -3.8600    -3.3050    -0.7140 c5         1 3JU       0.130100
     11 OD1         -4.3440    -4.6000    -0.4810 oh         1 3JU      -0.586800
     12 CB          -2.5720    -3.0650     0.0600 c5         1 3JU      -0.083400
     13 CA          -2.4710    -1.5380     0.1310 c5         1 3JU       0.032700
     14 C           -1.6970    -0.9750    -1.0580 c          1 3JU       0.662100
     15 O           -2.2200    -0.7880    -2.1450 o          1 3JU      -0.602100
     16 NAR         -0.3960    -0.7640    -0.8250 ns         1 3JU      -0.568900
     17 CAM          0.5170    -0.2960    -1.8520 c3         1 3JU       0.153300
     18 CAV          1.8690    -0.0370    -1.2510 ca         1 3JU      -0.111300
     19 CAI          2.0840     1.0870    -0.4580 ca         1 3JU      -0.113000
     20 CAK          3.3140     1.3140     0.1350 ca         1 3JU      -0.118500
     21 CAH          2.9190    -0.9300    -1.4360 ca         1 3JU      -0.113000
     22 CAJ          4.1570    -0.7010    -0.8550 ca         1 3JU      -0.118500
     23 CAX          4.3730     0.4250    -0.0600 ca         1 3JU       0.002000
     24 CAY          5.6760     0.6620     0.5640 cc         1 3JU      -0.109400
     25 SAS          6.5420    -0.6270     1.3190 ss         1 3JU      -0.175300
     26 CAL          7.7940     0.4690     1.7180 cc         1 3JU       0.414300
     27 NAQ          7.5950     1.6860     1.3300 nd         1 3JU      -0.636000
     28 CAW          6.4020     1.8190     0.6730 cd         1 3JU       0.369600
     29 CAA          6.0240     3.1580     0.1320 c3         1 3JU      -0.123400
     30 H1          -5.8220     2.7450    -1.4490 hc         1 3JU       0.036700
     31 H2          -5.9130     3.9820    -0.1980 hc         1 3JU       0.036700
     32 H3          -4.4340     3.0470    -0.4020 hc         1 3JU       0.036700
     33 H4          -6.0570     3.2890     2.2760 hc         1 3JU       0.036700
     34 H5          -6.0160     1.5830     2.7080 hc         1 3JU       0.036700
     35 H6          -4.5610     2.3770     2.1000 hc         1 3JU       0.036700
     36 H7          -7.9540     1.7280    -0.5030 hc         1 3JU       0.036700
     37 H8          -8.0350     1.2730     1.2010 hc         1 3JU       0.036700
     38 H9          -7.9770     2.9760     0.7420 hc         1 3JU       0.036700
     39 H10         -6.1610    -0.1720     0.8470 hc         1 3JU       0.057700
     40 H11         -5.9850     0.3090    -0.8150 hc         1 3JU       0.057700
     41 H12         -5.2950    -2.5290     0.7090 h1         1 3JU       0.051700
     42 H13         -5.5270    -1.9030    -0.9310 h1         1 3JU       0.051700
     43 H14         -3.6780    -3.1400    -1.7820 h1         1 3JU       0.060700
     44 H15         -5.0610    -4.7720    -1.0990 ho         1 3JU       0.410000
     45 H16         -2.6790    -3.4640     1.0720 hc         1 3JU       0.069200
     46 H17         -1.6970    -3.5290    -0.3940 hc         1 3JU       0.069200
     47 H18         -1.9930    -1.2220     1.0630 h1         1 3JU       0.076700
     48 H19         -0.0290    -0.9230     0.1000 hn         1 3JU       0.319500
     49 H20          0.5950    -1.0340    -2.6530 h1         1 3JU       0.059200
     50 H21          0.1240     0.6210    -2.2980 h1         1 3JU       0.059200
     51 H22          1.2790     1.7940    -0.2940 ha         1 3JU       0.140000
     52 H23          3.4460     2.1800     0.7710 ha         1 3JU       0.139000
     53 H24          2.7750    -1.8100    -2.0500 ha         1 3JU       0.140000
     54 H25          4.9630    -1.4020    -1.0360 ha         1 3JU       0.139000
     55 H26          8.6740     0.1410     2.2540 h5         1 3JU       0.053100
     56 H27          5.6020     3.7960     0.9100 hc         1 3JU       0.052700
     57 H28          6.9030     3.6650    -0.2630 hc         1 3JU       0.052700
     58 H29          5.2880     3.0790    -0.6660 hc         1 3JU       0.052700
@<TRIPOS>BOND
     1     1     2 1   
     2     1    30 1   
     3     1    31 1   
     4     1    32 1   
     5     2     3 1   
     6     2     4 1   
     7     2     5 1   
     8     3    33 1   
     9     3    34 1   
    10     3    35 1   
    11     4    36 1   
    12     4    37 1   
    13     4    38 1   
    14     5     6 1   
    15     5    39 1   
    16     5    40 1   
    17     6     7 2   
    18     6     8 1   
    19     8     9 1   
    20     8    13 1   
    21     9    10 1   
    22     9    41 1   
    23     9    42 1   
    24    10    11 1   
    25    10    12 1   
    26    10    43 1   
    27    11    44 1   
    28    12    13 1   
    29    12    45 1   
    30    12    46 1   
    31    13    14 1   
    32    13    47 1   
    33    14    15 2   
    34    14    16 1   
    35    16    17 1   
    36    16    48 1   
    37    17    18 1   
    38    17    49 1   
    39    17    50 1   
    40    18    19 ar  
    41    18    21 ar  
    42    19    20 ar  
    43    19    51 1   
    44    20    23 ar  
    45    20    52 1   
    46    21    22 ar  
    47    21    53 1   
    48    22    23 ar  
    49    22    54 1   
    50    23    24 1   
    51    24    25 1   
    52    24    28 2   
    53    25    26 1   
    54    26    27 2   
    55    26    55 1   
    56    27    28 1   
    57    28    29 1   
    58    29    56 1   
    59    29    57 1   
    60    29    58 1   
@<TRIPOS>SUBSTRUCTURE
     1 3JU         1 TEMP              0 ****  ****    0 ROOT
