@<TRIPOS>MOLECULE
3JU
   58    60     1     0     0
SMALL
No Charge or Current Charge


@<TRIPOS>ATOM
      1 CAB         -6.5370     2.8830    -0.3970 c3         1 3JU      -0.087433
      2 CBC         -6.8840     1.7280     0.5820 c3         1 3JU      -0.028000
      3 CAC         -6.6380     2.1780     2.0480 c3         1 3JU      -0.087433
      4 CAD         -8.3930     1.3980     0.4240 c3         1 3JU      -0.087433
      5 CAN         -6.0700     0.4350     0.2460 c3         1 3JU      -0.143400
      6 CAT         -4.5230     0.4410     0.3470 c          1 3JU       0.620100
      7 OAE         -3.8770     1.4500     0.6010 o          1 3JU      -0.605100
      8 N           -3.8470    -0.7810     0.1400 n          1 3JU      -0.405800
      9 CD2         -4.5110    -2.0590    -0.2160 c5         1 3JU       0.073000
     10 CG          -3.3120    -2.9550    -0.6470 c5         1 3JU       0.153300
     11 OD1         -3.5600    -4.3480    -0.4530 oh         1 3JU      -0.649000
     12 CB          -2.1930    -2.4410     0.2940 c5         1 3JU      -0.083400
     13 CA          -2.3640    -0.8930     0.2110 c5         1 3JU       0.032700
     14 C           -1.6220    -0.3410    -1.0500 c          1 3JU       0.595100
     15 O           -2.1060    -0.0590    -2.1390 o          1 3JU      -0.602100
     16 NAR         -0.2840    -0.1840    -0.7620 ns         1 3JU      -0.501900
     17 CAM          0.7030     0.3160    -1.7120 c3         1 3JU       0.153300
     18 CAV          2.0970     0.2990    -1.1050 ca         1 3JU      -0.111300
     19 CAI          2.5880     1.4270    -0.4210 ca         1 3JU      -0.095000
     20 CAK          3.8740     1.4070     0.1460 ca         1 3JU      -0.100500
     21 CAH          2.9020    -0.8510    -1.2060 ca         1 3JU      -0.095000
     22 CAJ          4.1870    -0.8690    -0.6380 ca         1 3JU      -0.100500
     23 CAX          4.6870     0.2630     0.0320 ca         1 3JU       0.002000
     24 CAY          6.0220     0.2240     0.6260 cc         1 3JU      -0.189000
     25 SAS          6.6090    -1.0430     1.6580 ss         1 3JU      -0.030400
     26 CAL          8.1240    -0.1750     1.7070 cc         1 3JU       0.414300
     27 NAQ          8.1970     0.9420     0.9860 nd         1 3JU      -0.636000
     28 CAW          6.9870     1.1720     0.3470 cd         1 3JU       0.304300
     29 CAA          6.8620     2.3670    -0.5610 c3         1 3JU      -0.123400
     30 H1          -6.6700     2.5650    -1.4390 hc         1 3JU       0.036700
     31 H2          -7.1880     3.7480    -0.2240 hc         1 3JU       0.036700
     32 H3          -5.5030     3.2240    -0.2770 hc         1 3JU       0.036700
     33 H4          -7.2870     3.0220     2.3100 hc         1 3JU       0.036700
     34 H5          -6.8490     1.3610     2.7480 hc         1 3JU       0.036700
     35 H6          -5.6030     2.5010     2.2070 hc         1 3JU       0.036700
     36 H7          -8.6200     1.0780    -0.6010 hc         1 3JU       0.036700
     37 H8          -8.6930     0.5910     1.1040 hc         1 3JU       0.036700
     38 H9          -9.0150     2.2740     0.6480 hc         1 3JU       0.036700
     39 H10         -6.4260    -0.4100     0.8460 hc         1 3JU       0.057700
     40 H11         -6.3180     0.0760    -0.7600 hc         1 3JU       0.057700
     41 H12         -5.0360    -2.4760     0.6540 h1         1 3JU       0.051700
     42 H13         -5.2300    -1.9380    -1.0370 h1         1 3JU       0.051700
     43 H14         -3.0460    -2.7530    -1.6960 h1         1 3JU       0.060700
     44 H15         -4.2440    -4.6140    -1.1090 ho         1 3JU       0.449000
     45 H16         -2.3530    -2.7920     1.3200 hc         1 3JU       0.069200
     46 H17         -1.1970    -2.7820    -0.0100 hc         1 3JU       0.069200
     47 H18         -1.9620    -0.3950     1.1030 h1         1 3JU       0.076700
     48 H19          0.0290    -0.4360     0.1680 hn         1 3JU       0.319500
     49 H20          0.6830    -0.3110    -2.6140 h1         1 3JU       0.059200
     50 H21          0.4340     1.3400    -2.0030 h1         1 3JU       0.059200
     51 H22          1.9720     2.3180    -0.3230 ha         1 3JU       0.122000
     52 H23          4.2330     2.2810     0.6840 ha         1 3JU       0.121000
     53 H24          2.5310    -1.7340    -1.7240 ha         1 3JU       0.122000
     54 H25          4.8000    -1.7630    -0.7250 ha         1 3JU       0.121000
     55 H26          8.9360    -0.5740     2.3010 h5         1 3JU       0.053100
     56 H27          6.4090     3.2130    -0.0320 hc         1 3JU       0.052700
     57 H28          7.8420     2.6900    -0.9310 hc         1 3JU       0.052700
     58 H29          6.2400     2.1390    -1.4340 hc         1 3JU       0.052700
@<TRIPOS>BOND
     1     1     2 1   
     2     1    30 1   
     3     1    31 1   
     4     1    32 1   
     5     2     3 1   
     6     2     4 1   
     7     2     5 1   
     8     3    33 1   
     9     3    34 1   
    10     3    35 1   
    11     4    36 1   
    12     4    37 1   
    13     4    38 1   
    14     5     6 1   
    15     5    39 1   
    16     5    40 1   
    17     6     7 2   
    18     6     8 1   
    19     8     9 1   
    20     8    13 1   
    21     9    10 1   
    22     9    41 1   
    23     9    42 1   
    24    10    11 1   
    25    10    12 1   
    26    10    43 1   
    27    11    44 1   
    28    12    13 1   
    29    12    45 1   
    30    12    46 1   
    31    13    14 1   
    32    13    47 1   
    33    14    15 2   
    34    14    16 1   
    35    16    17 1   
    36    16    48 1   
    37    17    18 1   
    38    17    49 1   
    39    17    50 1   
    40    18    19 ar  
    41    18    21 ar  
    42    19    20 ar  
    43    19    51 1   
    44    20    23 ar  
    45    20    52 1   
    46    21    22 ar  
    47    21    53 1   
    48    22    23 ar  
    49    22    54 1   
    50    23    24 1   
    51    24    25 1   
    52    24    28 2   
    53    25    26 1   
    54    26    27 2   
    55    26    55 1   
    56    27    28 1   
    57    28    29 1   
    58    29    56 1   
    59    29    57 1   
    60    29    58 1   
@<TRIPOS>SUBSTRUCTURE
     1 3JU         1 TEMP              0 ****  ****    0 ROOT
