@<TRIPOS>MOLECULE
3JV
   58    60     1     0     0
SMALL
No Charge or Current Charge


@<TRIPOS>ATOM
      1 CAB         -6.3310    -2.5900     0.5940 c3         1 3JV      -0.087767
      2 CBC         -6.7640    -1.5580    -0.4830 c3         1 3JV      -0.027000
      3 CAC         -6.5570    -2.1500    -1.9040 c3         1 3JV      -0.087767
      4 CAD         -8.2770    -1.2670    -0.2970 c3         1 3JV      -0.087767
      5 CAN         -5.9880    -0.2110    -0.3080 c3         1 3JV      -0.142400
      6 CAT         -4.4380    -0.2020    -0.3460 c          1 3JV       0.620100
      7 OAE         -3.7790    -1.1530    -0.7470 o          1 3JV      -0.607100
      8 N           -3.7810     0.9620     0.1120 n          1 3JV      -0.404800
      9 CD2         -4.4530     2.2740     0.2850 c5         1 3JV       0.072000
     10 CG          -3.2630     3.2820     0.2600 c5         1 3JV       0.153300
     11 OD1         -2.9060     3.6760    -1.0700 oh         1 3JV      -0.653000
     12 CB          -2.1400     2.4440     0.9170 c5         1 3JV      -0.082400
     13 CA          -2.2980     1.0520     0.2310 c5         1 3JV       0.040700
     14 C           -1.6300    -0.0240     1.1460 c          1 3JV       0.599100
     15 O           -2.1580    -0.6930     2.0270 o          1 3JV      -0.603100
     16 NAR         -0.2940    -0.1300     0.8260 ns         1 3JV      -0.496900
     17 CAM          0.6360    -1.0380     1.4880 c3         1 3JV       0.153300
     18 CAW          2.0450    -0.8630     0.9450 ca         1 3JV      -0.103300
     19 CAL          2.9030     0.1050     1.4980 ca         1 3JV      -0.098000
     20 CAV          4.2100     0.2830     1.0010 ca         1 3JV      -0.060300
     21 CAA          5.1090     1.3260     1.6580 c3         1 3JV      -0.052800
     22 CAH          2.5010    -1.6610    -0.1180 ca         1 3JV      -0.098000
     23 CAI          3.8000    -1.4900    -0.6210 ca         1 3JV      -0.094000
     24 CAY          4.6630    -0.5200    -0.0750 ca         1 3JV      -0.006000
     25 CAX          6.0050    -0.3740    -0.6410 cc         1 3JV      -0.182000
     26 SAS          6.7060     1.0820    -1.2800 ss         1 3JV      -0.027400
     27 CAJ          8.1140     0.1210    -1.6660 cc         1 3JV       0.407300
     28 NAQ          8.0600    -1.1740    -1.3580 nd         1 3JV      -0.630000
     29 CAK          6.8340    -1.4640    -0.7700 cd         1 3JV       0.275900
     30 H1          -6.9440    -3.4980     0.5310 hc         1 3JV       0.036922
     31 H2          -5.2860    -2.8920     0.4700 hc         1 3JV       0.036922
     32 H3          -6.4470    -2.1740     1.6020 hc         1 3JV       0.036922
     33 H4          -7.1920    -3.0330    -2.0530 hc         1 3JV       0.036922
     34 H5          -6.8180    -1.4150    -2.6760 hc         1 3JV       0.036922
     35 H6          -5.5220    -2.4640    -2.0710 hc         1 3JV       0.036922
     36 H7          -8.4810    -0.8570     0.7000 hc         1 3JV       0.036922
     37 H8          -8.6320    -0.5400    -1.0390 hc         1 3JV       0.036922
     38 H9          -8.8730    -2.1810    -0.4120 hc         1 3JV       0.036922
     39 H10         -6.3260     0.5240    -1.0480 hc         1 3JV       0.054700
     40 H11         -6.2900     0.2860     0.6210 hc         1 3JV       0.054700
     41 H12         -5.1780     2.4830    -0.5120 h1         1 3JV       0.053200
     42 H13         -4.9800     2.3100     1.2480 h1         1 3JV       0.053200
     43 H14         -3.4920     4.1740     0.8600 h1         1 3JV       0.051700
     44 H15         -3.6460     4.2210    -1.4180 ho         1 3JV       0.444000
     45 H16         -1.1450     2.8770     0.7680 hc         1 3JV       0.072700
     46 H17         -2.3010     2.3750     2.0000 hc         1 3JV       0.072700
     47 H18         -1.8330     1.0310    -0.7630 h1         1 3JV       0.074700
     48 H19          0.0590     0.4630     0.0850 hn         1 3JV       0.321500
     49 H20          0.6260    -0.8380     2.5680 h1         1 3JV       0.059700
     50 H21          0.2990    -2.0720     1.3310 h1         1 3JV       0.059700
     51 H22          2.5500     0.7220     2.3210 ha         1 3JV       0.116000
     52 H23          6.1300     0.9500     1.7930 hc         1 3JV       0.047367
     53 H24          5.1590     2.2390     1.0520 hc         1 3JV       0.047367
     54 H25          4.7390     1.6110     2.6500 hc         1 3JV       0.047367
     55 H26          1.8470    -2.4110    -0.5590 ha         1 3JV       0.125000
     56 H27          4.1340    -2.1100    -1.4510 ha         1 3JV       0.121000
     57 H28          8.9630     0.6030    -2.1350 h5         1 3JV       0.053100
     58 H29          6.6100    -2.4770    -0.4600 h4         1 3JV       0.046100
@<TRIPOS>BOND
     1     1     2 1   
     2     1    30 1   
     3     1    31 1   
     4     1    32 1   
     5     2     3 1   
     6     2     4 1   
     7     2     5 1   
     8     3    33 1   
     9     3    34 1   
    10     3    35 1   
    11     4    36 1   
    12     4    37 1   
    13     4    38 1   
    14     5     6 1   
    15     5    39 1   
    16     5    40 1   
    17     6     7 2   
    18     6     8 1   
    19     8     9 1   
    20     8    13 1   
    21     9    10 1   
    22     9    41 1   
    23     9    42 1   
    24    10    11 1   
    25    10    12 1   
    26    10    43 1   
    27    11    44 1   
    28    12    13 1   
    29    12    45 1   
    30    12    46 1   
    31    13    14 1   
    32    13    47 1   
    33    14    15 2   
    34    14    16 1   
    35    16    17 1   
    36    16    48 1   
    37    17    18 1   
    38    17    49 1   
    39    17    50 1   
    40    18    19 ar  
    41    18    22 ar  
    42    19    20 ar  
    43    19    51 1   
    44    20    21 1   
    45    20    24 ar  
    46    21    52 1   
    47    21    53 1   
    48    21    54 1   
    49    22    23 ar  
    50    22    55 1   
    51    23    24 ar  
    52    23    56 1   
    53    24    25 1   
    54    25    26 1   
    55    25    29 2   
    56    26    27 1   
    57    27    28 2   
    58    27    57 1   
    59    28    29 1   
    60    29    58 1   
@<TRIPOS>SUBSTRUCTURE
     1 3JV         1 TEMP              0 ****  ****    0 ROOT
