@<TRIPOS>MOLECULE
3JV
   58    60     1     0     0
SMALL
bcc


@<TRIPOS>ATOM
      1 CAB         -5.5440    -2.7150     0.2810 c3         1 3JV      -0.087767
      2 CBC         -6.0400    -1.6790    -0.7280 c3         1 3JV      -0.027000
      3 CAC         -5.5760    -2.0370    -2.1410 c3         1 3JV      -0.087767
      4 CAD         -7.5730    -1.6820    -0.7150 c3         1 3JV      -0.087767
      5 CAN         -5.6050    -0.2620    -0.3280 c3         1 3JV      -0.142400
      6 CAT         -4.1230     0.0260    -0.2090 c          1 3JV       0.687100
      7 OAE         -3.2370    -0.7440    -0.5590 o          1 3JV      -0.607100
      8 N           -3.8050     1.2260     0.3150 n          1 3JV      -0.471800
      9 CD2         -4.7220     2.2810     0.7180 c5         1 3JV       0.072000
     10 CG          -3.8390     3.5240     0.7050 c5         1 3JV       0.130100
     11 OD1         -3.6500     4.0280    -0.5980 oh         1 3JV      -0.590800
     12 CB          -2.5090     2.9670     1.1850 c5         1 3JV      -0.082400
     13 CA          -2.4160     1.5990     0.4940 c5         1 3JV       0.040700
     14 C           -1.6850     0.5950     1.3760 c          1 3JV       0.666100
     15 O           -2.1940     0.1390     2.3880 o          1 3JV      -0.603100
     16 NAR         -0.4290     0.3230     1.0020 ns         1 3JV      -0.563900
     17 CAM          0.4180    -0.5880     1.7500 c3         1 3JV       0.153300
     18 CAW          1.7720    -0.6720     1.1050 ca         1 3JV      -0.103300
     19 CAL          2.7780     0.2200     1.4570 ca         1 3JV      -0.116000
     20 CAV          4.0370     0.1950     0.8640 ca         1 3JV      -0.060300
     21 CAA          5.0830     1.1710     1.3180 c3         1 3JV      -0.052800
     22 CAH          2.0330    -1.6190     0.1230 ca         1 3JV      -0.116000
     23 CAI          3.2760    -1.6600    -0.4870 ca         1 3JV      -0.112000
     24 CAY          4.2850    -0.7650    -0.1300 ca         1 3JV      -0.006000
     25 CAX          5.5880    -0.9020    -0.7900 cc         1 3JV      -0.102400
     26 SAS          6.4160     0.3860    -1.5850 ss         1 3JV      -0.172300
     27 CAJ          7.6550    -0.7070    -2.0450 cc         1 3JV       0.407300
     28 NAQ          7.4790    -1.9260    -1.6500 nd         1 3JV      -0.630000
     29 CAK          6.3190    -2.0440    -0.9470 cd         1 3JV       0.341200
     30 H1          -5.9380    -3.7040     0.0360 hc         1 3JV       0.036922
     31 H2          -4.4570    -2.7840     0.2960 hc         1 3JV       0.036922
     32 H3          -5.8790    -2.4710     1.2920 hc         1 3JV       0.036922
     33 H4          -5.9930    -3.0010    -2.4420 hc         1 3JV       0.036922
     34 H5          -5.9190    -1.2930    -2.8640 hc         1 3JV       0.036922
     35 H6          -4.4920    -2.1030    -2.2150 hc         1 3JV       0.036922
     36 H7          -7.9660    -1.4340     0.2740 hc         1 3JV       0.036922
     37 H8          -7.9770    -0.9570    -1.4250 hc         1 3JV       0.036922
     38 H9          -7.9610    -2.6660    -0.9870 hc         1 3JV       0.036922
     39 H10         -6.0250     0.4510    -1.0490 hc         1 3JV       0.054700
     40 H11         -6.0790    -0.0090     0.6270 hc         1 3JV       0.054700
     41 H12         -5.5680     2.3680     0.0340 h1         1 3JV       0.053200
     42 H13         -5.1200     2.1070     1.7230 h1         1 3JV       0.053200
     43 H14         -4.2330     4.2910     1.3800 h1         1 3JV       0.051700
     44 H15         -4.4990     4.3250    -0.9400 ho         1 3JV       0.405000
     45 H16         -1.6650     3.6140     0.9500 hc         1 3JV       0.072700
     46 H17         -2.5500     2.8420     2.2680 hc         1 3JV       0.072700
     47 H18         -1.9130     1.6900    -0.4740 h1         1 3JV       0.074700
     48 H19         -0.1000     0.6610     0.1130 hn         1 3JV       0.321500
     49 H20          0.5140    -0.2360     2.7800 h1         1 3JV       0.059700
     50 H21         -0.0400    -1.5790     1.7920 h1         1 3JV       0.059700
     51 H22          2.5870     0.9510     2.2350 ha         1 3JV       0.134000
     52 H23          6.0530     0.6930     1.4620 hc         1 3JV       0.047367
     53 H24          5.2230     1.9780     0.5970 hc         1 3JV       0.047367
     54 H25          4.7940     1.6300     2.2620 hc         1 3JV       0.047367
     55 H26          1.2680    -2.3280    -0.1700 ha         1 3JV       0.143000
     56 H27          3.4640    -2.3920    -1.2620 ha         1 3JV       0.139000
     57 H28          8.5070    -0.3700    -2.6200 h5         1 3JV       0.053100
     58 H29          6.0320    -3.0030    -0.5370 h4         1 3JV       0.046100
@<TRIPOS>BOND
     1     1     2 1   
     2     1    30 1   
     3     1    31 1   
     4     1    32 1   
     5     2     3 1   
     6     2     4 1   
     7     2     5 1   
     8     3    33 1   
     9     3    34 1   
    10     3    35 1   
    11     4    36 1   
    12     4    37 1   
    13     4    38 1   
    14     5     6 1   
    15     5    39 1   
    16     5    40 1   
    17     6     7 2   
    18     6     8 1   
    19     8     9 1   
    20     8    13 1   
    21     9    10 1   
    22     9    41 1   
    23     9    42 1   
    24    10    11 1   
    25    10    12 1   
    26    10    43 1   
    27    11    44 1   
    28    12    13 1   
    29    12    45 1   
    30    12    46 1   
    31    13    14 1   
    32    13    47 1   
    33    14    15 2   
    34    14    16 1   
    35    16    17 1   
    36    16    48 1   
    37    17    18 1   
    38    17    49 1   
    39    17    50 1   
    40    18    19 ar  
    41    18    22 ar  
    42    19    20 ar  
    43    19    51 1   
    44    20    21 1   
    45    20    24 ar  
    46    21    52 1   
    47    21    53 1   
    48    21    54 1   
    49    22    23 ar  
    50    22    55 1   
    51    23    24 ar  
    52    23    56 1   
    53    24    25 1   
    54    25    26 1   
    55    25    29 2   
    56    26    27 1   
    57    27    28 2   
    58    27    57 1   
    59    28    29 1   
    60    29    58 1   
@<TRIPOS>SUBSTRUCTURE
     1 3JV         1 TEMP              0 ****  ****    0 ROOT
