@<TRIPOS>MOLECULE
3JW
   43    46     1     0     0
SMALL
No Charge or Current Charge


@<TRIPOS>ATOM
      1 C4           3.3570     0.1300     0.5030 ca         1 3JW       0.273500
      2 C5           4.5650    -0.2000    -0.1470 ca         1 3JW      -0.184800
      3 C6           5.7520     0.3490     0.2820 ca         1 3JW       0.125500
      4 N1           5.7890     1.2100     1.3150 nb         1 3JW      -0.194000
      5 N3           3.3860     1.0050     1.5340 nb         1 3JW      -0.233000
      6 CAA         -5.0770     3.4150    -0.8480 c3         1 3JW      -0.065100
      7 CAB         -4.0390     2.3500    -0.4200 c3         1 3JW      -0.342400
      8 OAY         -5.5750     0.8060     1.1410 o          1 3JW      -0.518500
      9 OAZ         -5.3800     0.2300    -1.3240 o          1 3JW      -0.518500
     10 NAD         -3.4520    -0.3040     0.2550 nq         1 3JW      -0.736500
     11 CAJ         -2.2390     0.1740     0.9770 cy         1 3JW       0.203300
     12 CAE         -2.5620    -0.7460    -0.8530 cy         1 3JW       0.203300
     13 CAF         -1.4990    -1.0310     0.2810 cy         1 3JW       0.080000
     14 CAG         -1.6300    -2.3980     1.0200 c3         1 3JW      -0.012300
     15 CAH         -1.3260    -3.5370     0.1440 c1         1 3JW       0.294900
     16 NAI         -1.1080    -4.4570    -0.5370 n1         1 3JW      -0.431000
     17 NAK         -0.0940    -0.7960    -0.0500 na         1 3JW       0.117800
     18 CAL          0.8980    -0.3700     0.8290 cc         1 3JW      -0.108000
     19 NAO          0.3600    -0.9810    -1.3400 nc         1 3JW      -0.522800
     20 CAN          1.6410    -0.6790    -1.2490 cd         1 3JW       0.282900
     21 CAM          2.0320    -0.3310     0.0620 cd         1 3JW      -0.274500
     22 C2           4.5980     1.4940     1.8920 ca         1 3JW       0.142900
     23 CAR          4.8620    -1.0990    -1.2280 cc         1 3JW      -0.211200
     24 CAS          6.2310    -1.0470    -1.4300 cd         1 3JW      -0.158100
     25 NAT          6.7900    -0.1400    -0.4970 na         1 3JW      -0.321400
     26 H1          -5.8310     3.5670    -0.0660 hc         1 3JW       0.054033
     27 H2          -4.5820     4.3770    -1.0340 hc         1 3JW       0.054033
     28 H3          -5.5910     3.1160    -1.7710 hc         1 3JW       0.054033
     29 H4          -3.2980     2.2000    -1.2110 h1         1 3JW       0.090200
     30 H5          -3.5390     2.6630     0.5030 h1         1 3JW       0.090200
     31 H6          -1.8460     1.1510     0.6660 h1         1 3JW       0.083200
     32 H7          -2.2800     0.1260     2.0710 h1         1 3JW       0.083200
     33 H8          -2.8950    -1.6260    -1.4160 h1         1 3JW       0.083200
     34 H9          -2.2560     0.0420    -1.5530 h1         1 3JW       0.083200
     35 H10         -0.9600    -2.4340     1.8860 hc         1 3JW       0.090200
     36 H11         -2.6450    -2.5390     1.4090 hc         1 3JW       0.090200
     37 H12          0.7190    -0.1460     1.8740 h4         1 3JW       0.173000
     38 H13          2.2440    -0.7020    -2.1470 h4         1 3JW       0.047100
     39 H14          4.6150     2.1940     2.7260 h5         1 3JW       0.047100
     40 H15          4.1770    -1.7450    -1.7740 ha         1 3JW       0.210000
     41 H16          6.8430    -1.5900    -2.1490 h4         1 3JW       0.220000
     42 H17          7.7710     0.1040    -0.3990 hn         1 3JW       0.365000
     43 SAC         -4.7760     0.7340    -0.0860 s6         1 3JW       1.189100
@<TRIPOS>BOND
     1     1     2 ar  
     2     1     5 ar  
     3     1    21 1   
     4     2     3 ar  
     5     2    23 1   
     6     3     4 ar  
     7     3    25 1   
     8     4    22 ar  
     9     5    22 ar  
    10     6     7 1   
    11     6    26 1   
    12     6    27 1   
    13     6    28 1   
    14     7    29 1   
    15     7    30 1   
    16     7    43 1   
    17     8    43 2   
    18     9    43 2   
    19    10    11 1   
    20    10    12 1   
    21    10    43 1   
    22    11    13 1   
    23    11    31 1   
    24    11    32 1   
    25    12    13 1   
    26    12    33 1   
    27    12    34 1   
    28    13    14 1   
    29    13    17 1   
    30    14    15 1   
    31    14    35 1   
    32    14    36 1   
    33    15    16 3   
    34    17    18 1   
    35    17    19 1   
    36    18    21 2   
    37    18    37 1   
    38    19    20 2   
    39    20    21 1   
    40    20    38 1   
    41    22    39 1   
    42    23    24 2   
    43    23    40 1   
    44    24    25 1   
    45    24    41 1   
    46    25    42 1   
@<TRIPOS>SUBSTRUCTURE
     1 3JW         1 TEMP              0 ****  ****    0 ROOT
