@<TRIPOS>MOLECULE
3JW
   43    46     1     0     0
SMALL
abcg2


@<TRIPOS>ATOM
      1 C4           3.1720     0.1260     0.4340 ca         1 3JW       0.273500
      2 C5           4.3580    -0.0660    -0.2810 ca         1 3JW      -0.184800
      3 C6           5.5050     0.5290     0.2920 ca         1 3JW       0.125500
      4 N1           5.5330     1.2270     1.4190 nb         1 3JW      -0.194000
      5 N3           3.1970     0.8210     1.5720 nb         1 3JW      -0.233000
      6 CAA         -4.5300     3.5030    -1.0070 c3         1 3JW      -0.065100
      7 CAB         -3.6160     2.3100    -0.7710 c3         1 3JW      -0.342400
      8 OAY         -4.9550     1.4390     1.3310 o          1 3JW      -0.518500
      9 OAZ         -5.4670     0.4420    -0.9270 o          1 3JW      -0.518500
     10 NAD         -3.4350    -0.2320     0.3280 nq         1 3JW      -0.736500
     11 CAJ         -2.2980    -0.1100     1.2470 cy         1 3JW       0.203300
     12 CAE         -2.6480    -0.9350    -0.6940 cy         1 3JW       0.203300
     13 CAF         -1.5970    -1.1930     0.4020 cy         1 3JW       0.080000
     14 CAG         -1.7140    -2.5720     1.0530 c3         1 3JW      -0.012300
     15 CAH         -1.3470    -3.6510     0.1490 c1         1 3JW       0.294900
     16 NAI         -1.0710    -4.5170    -0.5540 n1         1 3JW      -0.431000
     17 NAK         -0.2420    -0.9060     0.0200 na         1 3JW       0.117800
     18 CAL          0.7200    -0.3510     0.7710 cc         1 3JW      -0.108000
     19 NAO          0.2030    -1.3160    -1.1690 nc         1 3JW      -0.522800
     20 CAN          1.4810    -1.0110    -1.1860 cd         1 3JW       0.282900
     21 CAM          1.8790    -0.3920     0.0200 cd         1 3JW      -0.274500
     22 C2           4.3510     1.3250     1.9990 ca         1 3JW       0.142900
     23 CAR          4.7910    -0.7250    -1.4730 cc         1 3JW      -0.211200
     24 CAS          6.1320    -0.5020    -1.5680 cd         1 3JW      -0.158100
     25 NAT          6.5600     0.2540    -0.5070 na         1 3JW      -0.321400
     26 H1          -4.9030     3.9160    -0.0720 hc         1 3JW       0.054033
     27 H2          -3.9640     4.2810    -1.5170 hc         1 3JW       0.054033
     28 H3          -5.3770     3.2400    -1.6380 hc         1 3JW       0.054033
     29 H4          -3.2240     1.9210    -1.7110 h1         1 3JW       0.090200
     30 H5          -2.7750     2.5770    -0.1300 h1         1 3JW       0.090200
     31 H6          -1.7840     0.8550     1.2100 h1         1 3JW       0.083200
     32 H7          -2.5240    -0.3630     2.2810 h1         1 3JW       0.083200
     33 H8          -3.1400    -1.8060    -1.1230 h1         1 3JW       0.083200
     34 H9          -2.2670    -0.2990    -1.4960 h1         1 3JW       0.083200
     35 H10         -1.0750    -2.6240     1.9380 hc         1 3JW       0.090200
     36 H11         -2.7410    -2.7420     1.3840 hc         1 3JW       0.090200
     37 H12          0.5400     0.0260     1.7650 h4         1 3JW       0.173000
     38 H13          2.0680    -1.2260    -2.0640 h4         1 3JW       0.047100
     39 H14          4.3130     1.8820     2.9290 h5         1 3JW       0.047100
     40 H15          4.2090    -1.2950    -2.1760 ha         1 3JW       0.210000
     41 H16          6.8310    -0.8300    -2.3200 h4         1 3JW       0.220000
     42 H17          7.5080     0.5520    -0.3450 hn         1 3JW       0.365000
     43 SAC         -4.5080     0.9770     0.0260 s6         1 3JW       1.189100
@<TRIPOS>BOND
     1     1     2 ar  
     2     1     5 ar  
     3     1    21 1   
     4     2     3 ar  
     5     2    23 1   
     6     3     4 ar  
     7     3    25 1   
     8     4    22 ar  
     9     5    22 ar  
    10     6     7 1   
    11     6    26 1   
    12     6    27 1   
    13     6    28 1   
    14     7    29 1   
    15     7    30 1   
    16     7    43 1   
    17     8    43 2   
    18     9    43 2   
    19    10    11 1   
    20    10    12 1   
    21    10    43 1   
    22    11    13 1   
    23    11    31 1   
    24    11    32 1   
    25    12    13 1   
    26    12    33 1   
    27    12    34 1   
    28    13    14 1   
    29    13    17 1   
    30    14    15 1   
    31    14    35 1   
    32    14    36 1   
    33    15    16 3   
    34    17    18 1   
    35    17    19 1   
    36    18    21 2   
    37    18    37 1   
    38    19    20 2   
    39    20    21 1   
    40    20    38 1   
    41    22    39 1   
    42    23    24 2   
    43    23    40 1   
    44    24    25 1   
    45    24    41 1   
    46    25    42 1   
@<TRIPOS>SUBSTRUCTURE
     1 3JW         1 TEMP              0 ****  ****    0 ROOT
