@<TRIPOS>MOLECULE
3JX
   69    73     1     0     0
SMALL
No Charge or Current Charge


@<TRIPOS>ATOM
      1 C01         -2.2760     1.9800    -0.7700 ca         1 3JX      -0.200600
      2 C02         -1.7850     1.0000     0.1440 ca         1 3JX      -0.085000
      3 C03         -0.5030     1.1250     0.7200 ca         1 3JX      -0.125000
      4 C04          0.2760     2.2390     0.3760 ca         1 3JX      -0.019200
      5 C05         -0.1860     3.1770    -0.5030 ca         1 3JX      -0.111800
      6 C06         -1.4520     3.0870    -1.0960 ca         1 3JX       0.000000
      7 N07          1.5560     2.6010     0.7800 na         1 3JX      -0.072700
      8 C08          1.9520     3.7960     0.1440 cc         1 3JX      -0.031300
      9 C09          0.8660     4.1610    -0.6460 cd         1 3JX      -0.142400
     10 C10          0.7910     5.3860    -1.5240 c3         1 3JX      -0.011900
     11 C11          3.2850     4.4740     0.3310 c3         1 3JX      -0.039900
     12 C12          2.3320     1.8200     1.7650 c3         1 3JX       0.125900
     13 C13          3.3570     0.8670     1.1490 ca         1 3JX      -0.147300
     14 C14         -3.6450     1.8750    -1.4070 c          1 3JX       0.623700
     15 O15         -4.0640     2.7140    -2.1920 o          1 3JX      -0.617100
     16 N16         -4.4030     0.7830    -1.0510 ns         1 3JX      -0.515900
     17 C17         -5.7400     0.4850    -1.5600 c3         1 3JX       0.160000
     18 C18         -6.4800    -0.4350    -0.5900 ca         1 3JX      -0.052300
     19 C19         -5.6790    -0.0970    -2.9880 c3         1 3JX      -0.103100
     20 C20          3.0720     0.1440    -0.0280 ca         1 3JX      -0.103500
     21 C21          4.0310    -0.7260    -0.5760 ca         1 3JX      -0.088000
     22 C22          5.2920    -0.9070     0.0380 cp         1 3JX       0.040000
     23 C23          5.5670    -0.1690     1.2150 ca         1 3JX      -0.088000
     24 C24          4.6110     0.7010     1.7660 ca         1 3JX      -0.103500
     25 C25          6.3170    -1.8090    -0.5750 cp         1 3JX      -0.044000
     26 C26          6.6620    -1.6230    -1.9370 ca         1 3JX      -0.120000
     27 C27          7.6560    -2.3990    -2.5560 ca         1 3JX      -0.149000
     28 C28          8.3350    -3.3850    -1.8250 ca         1 3JX      -0.128000
     29 C29          8.0120    -3.6030    -0.4760 ca         1 3JX      -0.098000
     30 C30          7.0090    -2.8310     0.1460 ca         1 3JX      -0.098600
     31 C31         -6.0440    -1.7570    -0.3700 ca         1 3JX      -0.113000
     32 C32         -6.7250    -2.5960     0.5290 ca         1 3JX      -0.047500
     33 C33         -7.8580    -2.1230     1.2310 ca         1 3JX      -0.179200
     34 C34         -8.2910    -0.7940     1.0130 ca         1 3JX      -0.047500
     35 C35         -7.6050     0.0390     0.1120 ca         1 3JX      -0.113000
     36 N36         -8.5870    -3.0150     2.1900 no         1 3JX       0.695200
     37 O37         -9.5740    -2.5560     2.7820 o          1 3JX      -0.402000
     38 O38         -8.1710    -4.1700     2.3480 o          1 3JX      -0.402000
     39 C39          6.6000    -3.1020     1.5790 c          1 3JX       0.707600
     40 O40          5.4210    -3.3190     1.8240 o          1 3JX      -0.711000
     41 O41          7.4890    -3.2160     2.4110 o          1 3JX      -0.711000
     42 H1          -2.3820     0.1340     0.4160 ha         1 3JX       0.102000
     43 H2          -0.1370     0.3670     1.4080 ha         1 3JX       0.125000
     44 H3          -1.7860     3.8520    -1.7940 ha         1 3JX       0.129000
     45 H4           1.3390     6.2270    -1.0830 hc         1 3JX       0.033700
     46 H5           1.2210     5.1840    -2.5120 hc         1 3JX       0.033700
     47 H6          -0.2450     5.7140    -1.6680 hc         1 3JX       0.033700
     48 H7           4.0950     3.7400     0.4040 hc         1 3JX       0.052367
     49 H8           3.5160     5.1370    -0.5110 hc         1 3JX       0.052367
     50 H9           3.2890     5.0760     1.2470 hc         1 3JX       0.052367
     51 H10          2.8490     2.5310     2.4210 h1         1 3JX       0.058200
     52 H11          1.6460     1.2490     2.4010 h1         1 3JX       0.058200
     53 H12         -3.9950     0.1460    -0.3820 hn         1 3JX       0.320500
     54 H13         -6.2940     1.4330    -1.6170 h1         1 3JX       0.075700
     55 H14         -5.0790    -1.0140    -3.0180 hc         1 3JX       0.047700
     56 H15         -6.6880    -0.3330    -3.3470 hc         1 3JX       0.047700
     57 H16         -5.2330     0.6240    -3.6830 hc         1 3JX       0.047700
     58 H17          2.1110     0.2500    -0.5230 ha         1 3JX       0.101000
     59 H18          3.7950    -1.2730    -1.4860 ha         1 3JX       0.124000
     60 H19          6.5360    -0.2690     1.6970 ha         1 3JX       0.124000
     61 H20          4.8520     1.2520     2.6730 ha         1 3JX       0.101000
     62 H21          6.1610    -0.8500    -2.5160 ha         1 3JX       0.090000
     63 H22          7.9050    -2.2310    -3.6010 ha         1 3JX       0.087000
     64 H23          9.1060    -3.9850    -2.3030 ha         1 3JX       0.088000
     65 H24          8.5270    -4.3810     0.0840 ha         1 3JX       0.121000
     66 H25         -5.1720    -2.1410    -0.8960 ha         1 3JX       0.132500
     67 H26         -6.3630    -3.6130     0.6750 ha         1 3JX       0.151000
     68 H27         -9.1580    -0.3970     1.5390 ha         1 3JX       0.151000
     69 H28         -7.9530     1.0580    -0.0390 ha         1 3JX       0.132500
@<TRIPOS>BOND
     1     1     2 ar  
     2     1     6 ar  
     3     1    14 1   
     4     2     3 ar  
     5     2    42 1   
     6     3     4 ar  
     7     3    43 1   
     8     4     5 ar  
     9     4     7 1   
    10     5     6 ar  
    11     5     9 1   
    12     6    44 1   
    13     7     8 1   
    14     7    12 1   
    15     8     9 2   
    16     8    11 1   
    17     9    10 1   
    18    10    45 1   
    19    10    46 1   
    20    10    47 1   
    21    11    48 1   
    22    11    49 1   
    23    11    50 1   
    24    12    13 1   
    25    12    51 1   
    26    12    52 1   
    27    13    20 ar  
    28    13    24 ar  
    29    14    15 2   
    30    14    16 1   
    31    16    17 1   
    32    16    53 1   
    33    17    18 1   
    34    17    19 1   
    35    17    54 1   
    36    18    31 ar  
    37    18    35 ar  
    38    19    55 1   
    39    19    56 1   
    40    19    57 1   
    41    20    21 ar  
    42    20    58 1   
    43    21    22 ar  
    44    21    59 1   
    45    22    23 ar  
    46    22    25 1   
    47    23    24 ar  
    48    23    60 1   
    49    24    61 1   
    50    25    26 ar  
    51    25    30 ar  
    52    26    27 ar  
    53    26    62 1   
    54    27    28 ar  
    55    27    63 1   
    56    28    29 ar  
    57    28    64 1   
    58    29    30 ar  
    59    29    65 1   
    60    30    39 1   
    61    31    32 ar  
    62    31    66 1   
    63    32    33 ar  
    64    32    67 1   
    65    33    34 ar  
    66    33    36 1   
    67    34    35 ar  
    68    34    68 1   
    69    35    69 1   
    70    36    37 1   
    71    36    38 1   
    72    39    40 1   
    73    39    41 1   
@<TRIPOS>SUBSTRUCTURE
     1 3JX         1 TEMP              0 ****  ****    0 ROOT
