@<TRIPOS>MOLECULE
3JX
   69    73     1     0     0
SMALL
bcc


@<TRIPOS>ATOM
      1 C01         -2.2560     1.2450    -0.9770 ca         1 3JX      -0.200600
      2 C02         -1.7820     0.1960    -0.1630 ca         1 3JX      -0.103000
      3 C03         -0.5720     0.2810     0.4960 ca         1 3JX      -0.143000
      4 C04          0.1710     1.4490     0.3410 ca         1 3JX      -0.019200
      5 C05         -0.2740     2.5060    -0.4830 ca         1 3JX      -0.111800
      6 C06         -1.4910     2.3900    -1.1490 ca         1 3JX      -0.018000
      7 N07          1.3700     1.8190     0.8720 na         1 3JX      -0.043400
      8 C08          1.7060     3.0760     0.4020 cc         1 3JX      -0.031300
      9 C09          0.7200     3.5340    -0.4300 cd         1 3JX      -0.142400
     10 C10          0.6500     4.8350    -1.1550 c3         1 3JX      -0.011900
     11 C11          2.9780     3.7240     0.8150 c3         1 3JX      -0.039900
     12 C12          2.1840     1.0180     1.7540 c3         1 3JX       0.096600
     13 C13          3.3950     0.4190     1.0840 ca         1 3JX      -0.147300
     14 C14         -3.5610     1.1670    -1.6930 c          1 3JX       0.690700
     15 O15         -3.7710     1.8020    -2.7190 o          1 3JX      -0.617100
     16 N16         -4.4980     0.3760    -1.1330 ns         1 3JX      -0.582900
     17 C17         -5.8200     0.1950    -1.7130 c3         1 3JX       0.160000
     18 C18         -6.7850    -0.1640    -0.6080 ca         1 3JX      -0.052300
     19 C19         -5.8160    -0.8440    -2.8310 c3         1 3JX      -0.103100
     20 C20          3.3320    -0.0990    -0.2040 ca         1 3JX      -0.121500
     21 C21          4.4520    -0.6680    -0.7920 ca         1 3JX      -0.106000
     22 C22          5.6640    -0.7450    -0.1080 cp         1 3JX       0.040000
     23 C23          5.7220    -0.2200     1.1810 ca         1 3JX      -0.106000
     24 C24          4.6060     0.3560     1.7660 ca         1 3JX      -0.121500
     25 C25          6.8720    -1.2960    -0.7600 cp         1 3JX      -0.044000
     26 C26          7.2110    -0.8330    -2.0330 ca         1 3JX      -0.138000
     27 C27          8.3590    -1.2690    -2.6770 ca         1 3JX      -0.167000
     28 C28          9.2060    -2.1610    -2.0350 ca         1 3JX      -0.146000
     29 C29          8.8890    -2.6080    -0.7600 ca         1 3JX      -0.116000
     30 C30          7.7180    -2.2100    -0.1180 ca         1 3JX      -0.098600
     31 C31         -6.7050    -1.3950     0.0400 ca         1 3JX      -0.131000
     32 C32         -7.5800    -1.7220     1.0590 ca         1 3JX      -0.065500
     33 C33         -8.5510    -0.8010     1.4270 ca         1 3JX      -0.179200
     34 C34         -8.6580     0.4310     0.8000 ca         1 3JX      -0.065500
     35 C35         -7.7680     0.7400    -0.2150 ca         1 3JX      -0.131000
     36 N36         -9.4770    -1.1360     2.4980 no         1 3JX       0.315200
     37 O37        -10.3150    -0.3210     2.8010 o          1 3JX      -0.212000
     38 O38         -9.3600    -2.2140     3.0320 o          1 3JX      -0.212000
     39 C39          7.3850    -2.8460     1.2240 c          1 3JX       0.918200
     40 O40          6.2410    -3.3190     1.3380 o          1 3JX      -0.816300
     41 O41          8.3030    -2.8650     2.0670 o          1 3JX      -0.816300
     42 H1          -2.3490    -0.7210    -0.0690 ha         1 3JX       0.120000
     43 H2          -0.2230    -0.5450     1.1020 ha         1 3JX       0.143000
     44 H3          -1.8480     3.1910    -1.7850 ha         1 3JX       0.147000
     45 H4          -0.2530     5.3900    -0.8910 hc         1 3JX       0.033700
     46 H5           1.5010     5.4760    -0.9320 hc         1 3JX       0.033700
     47 H6           0.6280     4.6890    -2.2370 hc         1 3JX       0.033700
     48 H7           3.8470     3.2060     0.4060 hc         1 3JX       0.052367
     49 H8           3.0140     4.7540     0.4660 hc         1 3JX       0.052367
     50 H9           3.0920     3.7420     1.9000 hc         1 3JX       0.052367
     51 H10          2.4920     1.6190     2.6120 h1         1 3JX       0.058200
     52 H11          1.5530     0.2260     2.1610 h1         1 3JX       0.058200
     53 H12         -4.3190    -0.0190    -0.2250 hn         1 3JX       0.320500
     54 H13         -6.1330     1.1530    -2.1340 h1         1 3JX       0.075700
     55 H14         -5.4790    -1.8170    -2.4740 hc         1 3JX       0.047700
     56 H15         -6.8170    -0.9590    -3.2470 hc         1 3JX       0.047700
     57 H16         -5.1520    -0.5300    -3.6350 hc         1 3JX       0.047700
     58 H17          2.4050    -0.0630    -0.7650 ha         1 3JX       0.119000
     59 H18          4.3740    -1.0700    -1.7950 ha         1 3JX       0.142000
     60 H19          6.6560    -0.2380     1.7310 ha         1 3JX       0.142000
     61 H20          4.6840     0.7710     2.7640 ha         1 3JX       0.119000
     62 H21          6.5730    -0.1050    -2.5190 ha         1 3JX       0.108000
     63 H22          8.5960    -0.9010    -3.6670 ha         1 3JX       0.105000
     64 H23         10.1100    -2.5040    -2.5210 ha         1 3JX       0.106000
     65 H24          9.5540    -3.3000    -0.2590 ha         1 3JX       0.139000
     66 H25         -5.9560    -2.1220    -0.2490 ha         1 3JX       0.150500
     67 H26         -7.5020    -2.6810     1.5490 ha         1 3JX       0.169000
     68 H27         -9.4120     1.1470     1.0900 ha         1 3JX       0.169000
     69 H28         -7.8410     1.7010    -0.7060 ha         1 3JX       0.150500
@<TRIPOS>BOND
     1     1     2 ar  
     2     1     6 ar  
     3     1    14 1   
     4     2     3 ar  
     5     2    42 1   
     6     3     4 ar  
     7     3    43 1   
     8     4     5 ar  
     9     4     7 1   
    10     5     6 ar  
    11     5     9 1   
    12     6    44 1   
    13     7     8 1   
    14     7    12 1   
    15     8     9 2   
    16     8    11 1   
    17     9    10 1   
    18    10    45 1   
    19    10    46 1   
    20    10    47 1   
    21    11    48 1   
    22    11    49 1   
    23    11    50 1   
    24    12    13 1   
    25    12    51 1   
    26    12    52 1   
    27    13    20 ar  
    28    13    24 ar  
    29    14    15 2   
    30    14    16 1   
    31    16    17 1   
    32    16    53 1   
    33    17    18 1   
    34    17    19 1   
    35    17    54 1   
    36    18    31 ar  
    37    18    35 ar  
    38    19    55 1   
    39    19    56 1   
    40    19    57 1   
    41    20    21 ar  
    42    20    58 1   
    43    21    22 ar  
    44    21    59 1   
    45    22    23 ar  
    46    22    25 1   
    47    23    24 ar  
    48    23    60 1   
    49    24    61 1   
    50    25    26 ar  
    51    25    30 ar  
    52    26    27 ar  
    53    26    62 1   
    54    27    28 ar  
    55    27    63 1   
    56    28    29 ar  
    57    28    64 1   
    58    29    30 ar  
    59    29    65 1   
    60    30    39 1   
    61    31    32 ar  
    62    31    66 1   
    63    32    33 ar  
    64    32    67 1   
    65    33    34 ar  
    66    33    36 1   
    67    34    35 ar  
    68    34    68 1   
    69    35    69 1   
    70    36    37 1   
    71    36    38 1   
    72    39    40 1   
    73    39    41 1   
@<TRIPOS>SUBSTRUCTURE
     1 3JX         1 TEMP              0 ****  ****    0 ROOT
