@<TRIPOS>MOLECULE
3JY
   41    42     1     0     0
SMALL
No Charge or Current Charge


@<TRIPOS>ATOM
      1 N21         -4.5570     1.0950     0.6920 ns         1 3JY      -0.474500
      2 N6          -3.0160    -0.5270    -0.0500 n          1 3JY      -0.287000
      3 C2          -5.4770     0.8680    -0.2770 c          1 3JY       0.595200
      4 C22         -3.3560     0.4880     0.8850 c          1 3JY       0.605000
      5 C7          -1.7340    -1.3050     0.0460 c5         1 3JY       0.106700
      6 C20         -0.5310    -0.3550    -0.2220 c5         1 3JY      -0.136400
      7 C10          0.5710    -1.0920     0.5820 c5         1 3JY       0.188300
      8 C12          2.4930     0.2430    -0.3140 c3         1 3JY      -0.172700
      9 C13          3.5860     1.2280     0.0910 c          1 3JY       0.628100
     10 C9          -0.1580    -1.3240     1.9320 c5         1 3JY      -0.073400
     11 C8          -1.5250    -1.9190     1.4740 c5         1 3JY      -0.078400
     12 C5          -3.8850    -0.8440    -1.0980 cc         1 3JY       0.026600
     13 C3          -5.0890    -0.1880    -1.2400 cd         1 3JY      -0.322400
     14 C4          -6.0740    -0.4850    -2.3490 c3         1 3JY      -0.003900
     15 O1          -6.5200     1.4990    -0.3210 o          1 3JY      -0.577000
     16 O11          1.6760    -0.1860     0.8290 os         1 3JY      -0.407000
     17 O14          4.1010     1.2540     1.2060 o          1 3JY      -0.547000
     18 O15          3.6160     2.2990    -0.7700 os         1 3JY      -0.423100
     19 O23         -2.6510     0.8400     1.8160 o          1 3JY      -0.526000
     20 P16          3.4980    -1.0840    -1.1370 p5         1 3JY       1.271500
     21 H1          -4.7930     1.8120     1.3580 hn         1 3JY       0.329500
     22 H2          -1.7160    -2.1230    -0.6870 h1         1 3JY       0.046700
     23 H3          -0.3010    -0.2840    -1.2910 hc         1 3JY       0.055700
     24 H4          -0.6830     0.6640     0.1500 hc         1 3JY       0.055700
     25 H5           0.9080    -2.0290     0.1150 h1         1 3JY       0.101700
     26 H6           1.8730     0.7110    -1.0870 h1         1 3JY       0.032700
     27 H7           0.3910    -2.0090     2.5880 hc         1 3JY       0.062200
     28 H8          -0.2940    -0.3860     2.4820 hc         1 3JY       0.062200
     29 H9          -2.3320    -1.7070     2.1840 hc         1 3JY       0.034200
     30 H10         -1.4640    -3.0110     1.4030 hc         1 3JY       0.034200
     31 H11         -3.5170    -1.6280    -1.7530 h4         1 3JY       0.205000
     32 H12         -7.0380    -0.8160    -1.9440 hc         1 3JY       0.033367
     33 H13         -6.2540     0.4040    -2.9660 hc         1 3JY       0.033367
     34 H14         -5.7050    -1.2770    -3.0120 hc         1 3JY       0.033367
     35 C1           4.4970     3.3910    -0.4620 c3         1 3JY       0.166900
     36 H17          4.2250     3.8540     0.4950 h1         1 3JY       0.014033
     37 H18          5.5370     3.0460    -0.4030 h1         1 3JY       0.014033
     38 H19          4.4340     4.1600    -1.2430 h1         1 3JY       0.014033
     39 O18          4.1620    -1.9340    -0.1050 o          1 3JY      -0.907167
     40 O19          2.5840    -1.9300    -1.9600 o          1 3JY      -0.907167
     41 O17          4.5300    -0.4750    -2.0250 o          1 3JY      -0.907167
@<TRIPOS>BOND
     1     1     3 1   
     2     1     4 1   
     3     1    21 1   
     4     2     4 1   
     5     2     5 1   
     6     2    12 1   
     7     3    13 1   
     8     3    15 2   
     9     4    19 2   
    10     5     6 1   
    11     5    11 1   
    12     5    22 1   
    13     6     7 1   
    14     6    23 1   
    15     6    24 1   
    16     7    10 1   
    17     7    16 1   
    18     7    25 1   
    19     8     9 1   
    20     8    16 1   
    21     8    20 1   
    22     8    26 1   
    23     9    17 2   
    24     9    18 1   
    25    10    11 1   
    26    10    27 1   
    27    10    28 1   
    28    11    29 1   
    29    11    30 1   
    30    12    13 2   
    31    12    31 1   
    32    13    14 1   
    33    14    32 1   
    34    14    33 1   
    35    14    34 1   
    36    18    35 1   
    37    20    39 1   
    38    20    40 1   
    39    20    41 1   
    40    35    36 1   
    41    35    37 1   
    42    35    38 1   
@<TRIPOS>SUBSTRUCTURE
     1 3JY         1 TEMP              0 ****  ****    0 ROOT
