@<TRIPOS>MOLECULE
3JY
   41    42     1     0     0
SMALL
abcg2


@<TRIPOS>ATOM
      1 N21         -4.6420     0.9420     0.9380 ns         1 3JY      -0.474500
      2 N6          -3.0750    -0.4550    -0.0270 n          1 3JY      -0.287000
      3 C2          -5.5770     0.8110    -0.0720 c          1 3JY       0.595200
      4 C22         -3.4000     0.3640     1.0260 c          1 3JY       0.605000
      5 C7          -1.7720    -1.1310    -0.0630 c5         1 3JY       0.106700
      6 C20         -0.5750    -0.1880    -0.2280 c5         1 3JY      -0.136400
      7 C10          0.5670    -0.9680     0.4340 c5         1 3JY       0.188300
      8 C12          2.5210     0.1540    -0.2900 c3         1 3JY      -0.172700
      9 C13          3.1970     1.4280     0.0810 c          1 3JY       0.628100
     10 C9          -0.0980    -1.5570     1.6720 c5         1 3JY      -0.073400
     11 C8          -1.4560    -2.0330     1.1580 c5         1 3JY      -0.078400
     12 C5          -3.9460    -0.6240    -1.0690 cc         1 3JY       0.026600
     13 C3          -5.1590    -0.0490    -1.1570 cd         1 3JY      -0.322400
     14 C4          -6.0820    -0.2650    -2.3110 c3         1 3JY      -0.003900
     15 O1          -6.6470     1.3920    -0.0060 o          1 3JY      -0.577000
     16 O11          1.6750    -0.1900     0.7910 os         1 3JY      -0.407000
     17 O14          3.2650     1.8890     1.1960 o          1 3JY      -0.547000
     18 O15          3.7680     2.0100    -0.9740 os         1 3JY      -0.423100
     19 O23         -2.6650     0.5740     1.9700 o          1 3JY      -0.526000
     20 P16          3.8730    -1.1670    -0.6070 p5         1 3JY       1.271500
     21 H1          -4.8920     1.5400     1.7160 hn         1 3JY       0.329500
     22 H2          -1.8310    -1.7700    -0.9430 h1         1 3JY       0.046700
     23 H3          -0.3980     0.0510    -1.2780 hc         1 3JY       0.055700
     24 H4          -0.7280     0.7490     0.3100 hc         1 3JY       0.055700
     25 H5           0.8800    -1.7880    -0.2220 h1         1 3JY       0.101700
     26 H6           1.9490     0.3040    -1.2150 h1         1 3JY       0.032700
     27 H7           0.4910    -2.3580     2.1210 hc         1 3JY       0.062200
     28 H8          -0.2310    -0.7710     2.4200 hc         1 3JY       0.062200
     29 H9          -2.2280    -2.0010     1.9230 hc         1 3JY       0.034200
     30 H10         -1.3960    -3.0680     0.8190 hc         1 3JY       0.034200
     31 H11         -3.5900    -1.2780    -1.8540 h4         1 3JY       0.205000
     32 H12         -7.0080    -0.7490    -1.9970 hc         1 3JY       0.033367
     33 H13         -6.3550     0.6790    -2.7850 hc         1 3JY       0.033367
     34 H14         -5.6160    -0.8950    -3.0670 hc         1 3JY       0.033367
     35 C1           4.5450     3.1760    -0.7320 c3         1 3JY       0.166900
     36 H17          3.9430     3.9880    -0.3220 h1         1 3JY       0.014033
     37 H18          5.3750     2.9740    -0.0550 h1         1 3JY       0.014033
     38 H19          4.9400     3.4800    -1.6970 h1         1 3JY       0.014033
     39 O18          4.8840    -0.9090     0.5110 o          1 3JY      -0.907167
     40 O19          3.1250    -2.4960    -0.4870 o          1 3JY      -0.907167
     41 O17          4.3770    -0.8540    -2.0130 o          1 3JY      -0.907167
@<TRIPOS>BOND
     1     1     3 1   
     2     1     4 1   
     3     1    21 1   
     4     2     4 1   
     5     2     5 1   
     6     2    12 1   
     7     3    13 1   
     8     3    15 2   
     9     4    19 2   
    10     5     6 1   
    11     5    11 1   
    12     5    22 1   
    13     6     7 1   
    14     6    23 1   
    15     6    24 1   
    16     7    10 1   
    17     7    16 1   
    18     7    25 1   
    19     8     9 1   
    20     8    16 1   
    21     8    20 1   
    22     8    26 1   
    23     9    17 2   
    24     9    18 1   
    25    10    11 1   
    26    10    27 1   
    27    10    28 1   
    28    11    29 1   
    29    11    30 1   
    30    12    13 2   
    31    12    31 1   
    32    13    14 1   
    33    14    32 1   
    34    14    33 1   
    35    14    34 1   
    36    18    35 1   
    37    20    39 1   
    38    20    40 1   
    39    20    41 1   
    40    35    36 1   
    41    35    37 1   
    42    35    38 1   
@<TRIPOS>SUBSTRUCTURE
     1 3JY         1 TEMP              0 ****  ****    0 ROOT
