@<TRIPOS>MOLECULE
3JZ
   56    59     1     0     0
SMALL
No Charge or Current Charge


@<TRIPOS>ATOM
      1 C35         -4.7180    -2.5510    -2.4910 c3         1 3JZ       0.202100
      2 C34         -6.3380     0.5890    -2.1560 c3         1 3JZ      -0.375100
      3 N2           2.2340     1.3000     0.3590 nb         1 3JZ      -0.277000
      4 C7           1.2900     2.2240     0.1180 ca         1 3JZ       0.224900
      5 C6          -0.0790     1.8960     0.0750 ca         1 3JZ      -0.435300
      6 C13         -3.5930    -1.4510     0.6860 ca         1 3JZ      -0.088300
      7 C20         -4.6770    -1.5180    -0.2220 ca         1 3JZ       0.276000
      8 C21          6.9010    -1.2740     0.9720 ca         1 3JZ      -0.056000
      9 C8          -1.1120     2.9820    -0.2120 c3         1 3JZ       0.381300
     10 C18         -5.1470    -1.7370     2.5520 ca         1 3JZ      -0.100000
     11 C16          4.7260    -2.0220     1.6600 ca         1 3JZ      -0.135000
     12 C19         -6.2180    -1.8290     1.6510 ca         1 3JZ      -0.087000
     13 O33         -4.2850     0.0370    -3.7340 o          1 3JZ      -0.525500
     14 S31         -4.6120     0.1710    -2.3120 s6         1 3JZ       1.220100
     15 O32         -3.8400     1.0770    -1.4570 o          1 3JZ      -0.525500
     16 N30         -4.4780    -1.3980    -1.6060 nh         1 3JZ      -0.795300
     17 C17         -3.8410    -1.5540     2.0710 ca         1 3JZ      -0.085000
     18 C1          -5.9800    -1.7240     0.2710 ca         1 3JZ      -0.121000
     19 N10         -1.7070     0.0890     0.2620 nu         1 3JZ      -0.921100
     20 C5          -0.4020     0.5460     0.2860 ca         1 3JZ       0.478900
     21 F29         -0.6170     4.2270    -0.0250 f          1 3JZ      -0.115333
     22 F28         -1.5360     2.9240    -1.4920 f          1 3JZ      -0.115333
     23 F27         -2.2040     2.8880     0.5800 f          1 3JZ      -0.115333
     24 N4           0.5400    -0.3770     0.5300 nb         1 3JZ      -0.356000
     25 C3           1.8050     0.0450     0.5440 ca         1 3JZ       0.447900
     26 N9           2.7280    -0.9460     0.8290 nu         1 3JZ      -0.923900
     27 C11          4.1280    -1.0170     0.8590 ca         1 3JZ       0.288000
     28 C14          4.9520    -0.1490     0.0980 ca         1 3JZ      -0.070000
     29 C22          6.3450    -0.2980     0.1780 ca         1 3JZ      -0.119300
     30 C23          7.4520     0.4840    -0.5240 c5         1 3JZ      -0.120100
     31 C15          6.1290    -2.1600     1.7280 ca         1 3JZ      -0.116000
     32 N25          8.2820    -1.1800     0.8420 ns         1 3JZ      -0.147000
     33 C24          8.7580    -0.1940     0.0010 c          1 3JZ       0.564000
     34 O26          9.9320     0.0560    -0.2430 o          1 3JZ      -0.530000
     35 H35         -5.6950    -2.4710    -2.9840 h1         1 3JZ       0.051033
     36 H35A        -3.9360    -2.6170    -3.2580 h1         1 3JZ       0.051033
     37 H35B        -4.6980    -3.4860    -1.9150 h1         1 3JZ       0.051033
     38 H34         -6.9140    -0.1960    -2.6550 h1         1 3JZ       0.101367
     39 H34A        -6.5710     0.6430    -1.0880 h1         1 3JZ       0.101367
     40 H34B        -6.4830     1.5590    -2.6400 h1         1 3JZ       0.101367
     41 H7           1.6470     3.2400    -0.0430 h4         1 3JZ       0.034100
     42 H18         -5.3270    -1.8160     3.6220 ha         1 3JZ       0.122000
     43 H16          4.1000    -2.6970     2.2370 ha         1 3JZ       0.113000
     44 H19         -7.2300    -1.9810     2.0200 ha         1 3JZ       0.121000
     45 H17         -3.0140    -1.4970     2.7760 ha         1 3JZ       0.124000
     46 H1          -6.8130    -1.7970    -0.4210 ha         1 3JZ       0.114000
     47 H12         -1.5260    -1.9340     0.8670 h1         1 3JZ       0.063200
     48 H12A        -2.0340    -1.7150    -0.8070 h1         1 3JZ       0.063200
     49 HN10        -2.3750     0.7580    -0.1310 hn         1 3JZ       0.532000
     50 HN9          2.2690    -1.7940     1.1570 hn         1 3JZ       0.508000
     51 H14          4.5270     0.6070    -0.5520 ha         1 3JZ       0.156000
     52 H23          7.4290     0.4110    -1.6160 hc         1 3JZ       0.093200
     53 H23A         7.4790     1.5490    -0.2740 hc         1 3JZ       0.093200
     54 H15          6.5910    -2.9280     2.3450 ha         1 3JZ       0.122000
     55 HN25         8.9060    -1.7990     1.3420 hn         1 3JZ       0.171000
     56 C12         -2.1500    -1.3140     0.2090 c3         1 3JZ       0.285100
@<TRIPOS>BOND
     1     1    16 1   
     2     1    35 1   
     3     1    36 1   
     4     1    37 1   
     5     2    14 1   
     6     2    38 1   
     7     2    39 1   
     8     2    40 1   
     9     3     4 ar  
    10     3    25 ar  
    11     4     5 ar  
    12     4    41 1   
    13     5     9 1   
    14     5    20 ar  
    15     6     7 ar  
    16     6    17 ar  
    17     6    56 1   
    18     7    16 1   
    19     7    18 ar  
    20     8    29 ar  
    21     8    31 ar  
    22     8    32 1   
    23     9    21 1   
    24     9    22 1   
    25     9    23 1   
    26    10    12 ar  
    27    10    17 ar  
    28    10    42 1   
    29    11    27 ar  
    30    11    31 ar  
    31    11    43 1   
    32    12    18 ar  
    33    12    44 1   
    34    13    14 2   
    35    14    15 2   
    36    14    16 1   
    37    17    45 1   
    38    18    46 1   
    39    19    20 1   
    40    19    49 1   
    41    19    56 1   
    42    20    24 ar  
    43    24    25 ar  
    44    25    26 1   
    45    26    27 1   
    46    26    50 1   
    47    27    28 ar  
    48    28    29 ar  
    49    28    51 1   
    50    29    30 1   
    51    30    33 1   
    52    30    52 1   
    53    30    53 1   
    54    31    54 1   
    55    32    33 1   
    56    32    55 1   
    57    33    34 2   
    58    47    56 1   
    59    48    56 1   
@<TRIPOS>SUBSTRUCTURE
     1 3JZ         1 TEMP              0 ****  ****    0 ROOT
