@<TRIPOS>MOLECULE
3JZ
   56    59     1     0     0
SMALL
bcc


@<TRIPOS>ATOM
      1 C35         -3.6520    -2.4410    -1.9700 c3         1 3JZ       0.202100
      2 C34         -5.4040     0.0690    -3.1340 c3         1 3JZ      -0.264300
      3 N2           2.0640     1.2300     0.2950 nb         1 3JZ      -0.803000
      4 C7           1.1480     2.1840     0.1950 ca         1 3JZ       0.553200
      5 C6          -0.2060     1.9840     0.3450 ca         1 3JZ      -0.565900
      6 C13         -3.7240    -1.2780     1.1950 ca         1 3JZ      -0.088300
      7 C20         -4.5290    -1.3320     0.0560 ca         1 3JZ       0.137600
      8 C21          6.5830    -1.4680     0.4160 ca         1 3JZ       0.036600
      9 C8          -1.1620     3.1030     0.1660 c3         1 3JZ       0.745200
     10 C18         -5.6960    -1.6010     2.5570 ca         1 3JZ      -0.118000
     11 C16          4.4470    -2.2420     1.0990 ca         1 3JZ      -0.153000
     12 C19         -6.4830    -1.6690     1.4180 ca         1 3JZ      -0.105000
     13 O33         -2.8280     0.3720    -2.8410 o          1 3JZ      -0.596300
     14 S31         -4.0210     0.2190    -2.0250 s6         1 3JZ       1.250900
     15 O32         -4.3480     1.2240    -1.0240 o          1 3JZ      -0.596300
     16 N30         -3.9050    -1.2170    -1.2180 nh         1 3JZ      -0.656900
     17 C17         -4.3250    -1.4110     2.4420 ca         1 3JZ      -0.103000
     18 C1          -5.8980    -1.5400     0.1670 ca         1 3JZ      -0.139000
     19 N10         -1.8780     0.2670     0.8040 nu         1 3JZ      -0.865900
     20 C5          -0.6070     0.6430     0.6260 ca         1 3JZ       0.807200
     21 F29         -0.5500     4.2910     0.1240 f          1 3JZ      -0.236633
     22 F28         -1.8730     2.9980    -0.9680 f          1 3JZ      -0.236633
     23 F27         -2.0660     3.1730     1.1640 f          1 3JZ      -0.236633
     24 N4           0.3120    -0.3080     0.7320 nb         1 3JZ      -0.882000
     25 C3           1.5930     0.0150     0.5610 ca         1 3JZ       0.973900
     26 N9           2.4480    -1.0280     0.6840 nu         1 3JZ      -0.730300
     27 C11          3.8400    -1.0950     0.5800 ca         1 3JZ       0.149600
     28 C14          4.6330    -0.1200    -0.0400 ca         1 3JZ      -0.088000
     29 C22          5.9950    -0.3210    -0.1080 ca         1 3JZ      -0.119300
     30 C23          7.0780     0.5250    -0.6990 c5         1 3JZ      -0.120100
     31 C15          5.8190    -2.4460     1.0230 ca         1 3JZ      -0.134000
     32 N25          7.9580    -1.4170     0.2100 ns         1 3JZ      -0.473100
     33 C24          8.3410    -0.2810    -0.4350 c          1 3JZ       0.706500
     34 O26          9.4790     0.0150    -0.7380 o          1 3JZ      -0.605500
     35 H35         -4.5720    -2.9020    -2.3360 h1         1 3JZ       0.051033
     36 H35A        -2.9930    -2.2360    -2.8100 h1         1 3JZ       0.051033
     37 H35B        -3.1430    -3.1490    -1.3180 h1         1 3JZ       0.051033
     38 H34         -5.2480    -0.7710    -3.8080 h1         1 3JZ       0.101367
     39 H34A        -6.3180    -0.0710    -2.5620 h1         1 3JZ       0.101367
     40 H34B        -5.4670     0.9910    -3.7090 h1         1 3JZ       0.101367
     41 H7           1.5320     3.1730    -0.0240 h4         1 3JZ       0.034100
     42 H18         -6.1450    -1.7020     3.5360 ha         1 3JZ       0.140000
     43 H16          3.8340    -2.9980     1.5760 ha         1 3JZ       0.131000
     44 H19         -7.5510    -1.8210     1.4990 ha         1 3JZ       0.139000
     45 H17         -3.7100    -1.3690     3.3330 ha         1 3JZ       0.142000
     46 H1          -6.5110    -1.6000    -0.7240 ha         1 3JZ       0.132000
     47 H12         -1.7680    -1.4320     2.0190 h1         1 3JZ       0.063200
     48 H12A        -1.8360    -1.7570     0.2980 h1         1 3JZ       0.063200
     49 HN10        -2.6260     0.9350     0.7360 hn         1 3JZ       0.476800
     50 HN9          1.9930    -1.8880     0.9480 hn         1 3JZ       0.452800
     51 H14          4.1900     0.7710    -0.4550 ha         1 3JZ       0.174000
     52 H23          6.9600     0.6900    -1.7730 hc         1 3JZ       0.093200
     53 H23A         7.1610     1.5110    -0.2350 hc         1 3JZ       0.093200
     54 H15          6.2620    -3.3440     1.4330 ha         1 3JZ       0.140000
     55 HN25         8.6070    -2.1310     0.5050 hn         1 3JZ       0.337500
     56 C12         -2.2340    -1.1130     1.0850 c3         1 3JZ       0.285100
@<TRIPOS>BOND
     1     1    16 1   
     2     1    35 1   
     3     1    36 1   
     4     1    37 1   
     5     2    14 1   
     6     2    38 1   
     7     2    39 1   
     8     2    40 1   
     9     3     4 ar  
    10     3    25 ar  
    11     4     5 ar  
    12     4    41 1   
    13     5     9 1   
    14     5    20 ar  
    15     6     7 ar  
    16     6    17 ar  
    17     6    56 1   
    18     7    16 1   
    19     7    18 ar  
    20     8    29 ar  
    21     8    31 ar  
    22     8    32 1   
    23     9    21 1   
    24     9    22 1   
    25     9    23 1   
    26    10    12 ar  
    27    10    17 ar  
    28    10    42 1   
    29    11    27 ar  
    30    11    31 ar  
    31    11    43 1   
    32    12    18 ar  
    33    12    44 1   
    34    13    14 2   
    35    14    15 2   
    36    14    16 1   
    37    17    45 1   
    38    18    46 1   
    39    19    20 1   
    40    19    49 1   
    41    19    56 1   
    42    20    24 ar  
    43    24    25 ar  
    44    25    26 1   
    45    26    27 1   
    46    26    50 1   
    47    27    28 ar  
    48    28    29 ar  
    49    28    51 1   
    50    29    30 1   
    51    30    33 1   
    52    30    52 1   
    53    30    53 1   
    54    31    54 1   
    55    32    33 1   
    56    32    55 1   
    57    33    34 2   
    58    47    56 1   
    59    48    56 1   
@<TRIPOS>SUBSTRUCTURE
     1 3JZ         1 TEMP              0 ****  ****    0 ROOT
