@<TRIPOS>MOLECULE
3K0
   22    21     1     0     0
SMALL
bcc


@<TRIPOS>ATOM
      1 OE1         -4.3620    -1.4980     0.1300 o          1 3K0      -0.867300
      2 CD          -3.6830    -0.4670     0.3210 c          1 3K0       0.923600
      3 OE2         -4.0820     0.5900     0.8490 o          1 3K0      -0.867300
      4 CG          -2.2190    -0.5350    -0.1450 c3         1 3K0      -0.199400
      5 CB          -1.4020     0.7280     0.0700 c3         1 3K0      -0.042400
      6 CA           0.0090     0.6490    -0.5200 c3         1 3K0       0.081500
      7 C            0.7120     2.0250    -0.4470 c          1 3K0       0.921600
      8 OXT          0.1790     2.9230    -1.1190 o          1 3K0      -0.849300
      9 O            1.7300     2.1430     0.2720 o          1 3K0      -0.849300
     10 N            0.7090    -0.4530     0.1380 n7         1 3K0      -0.807100
     11 SAN          2.1800    -0.9610    -0.3530 s6         1 3K0       1.399800
     12 OAD          2.3270    -2.3830    -0.0830 o          1 3K0      -0.680300
     13 OAE          2.3290    -0.5380    -1.7400 o          1 3K0      -0.680300
     14 NAA          3.1960    -0.1940     0.6940 n8         1 3K0      -0.952700
     15 H2          -1.7450    -1.3850     0.3530 hc         1 3K0       0.016700
     16 H3          -2.2090    -0.7930    -1.2110 hc         1 3K0       0.016700
     17 H4          -1.9020     1.5750    -0.3980 hc         1 3K0       0.048200
     18 H5          -1.3380     0.9640     1.1380 hc         1 3K0       0.048200
     19 H6          -0.0960     0.3880    -1.5760 h1         1 3K0       0.064700
     20 H8           0.5890    -0.5070     1.1430 hn         1 3K0       0.423800
     21 H9           2.9860     0.8090     0.6600 hn         1 3K0       0.425300
     22 H10          4.1720    -0.4050     0.5160 hn         1 3K0       0.425300
@<TRIPOS>BOND
     1     1     2 1   
     2     2     3 1   
     3     2     4 1   
     4     4     5 1   
     5     4    15 1   
     6     4    16 1   
     7     5     6 1   
     8     5    17 1   
     9     5    18 1   
    10     6     7 1   
    11     6    10 1   
    12     6    19 1   
    13     7     8 1   
    14     7     9 1   
    15    10    11 1   
    16    10    20 1   
    17    11    12 2   
    18    11    13 2   
    19    11    14 1   
    20    14    21 1   
    21    14    22 1   
@<TRIPOS>SUBSTRUCTURE
     1 3K0         1 TEMP              0 ****  ****    0 ROOT
