@<TRIPOS>MOLECULE
3K0
   22    21     1     0     0
SMALL
No Charge or Current Charge


@<TRIPOS>ATOM
      1 OE1         -4.5570     0.0140    -0.2660 o          1 3K0      -0.762000
      2 CD          -3.7150    -0.3710     0.5300 c          1 3K0       0.713000
      3 OE2         -3.9180    -0.4670     1.7310 o          1 3K0      -0.762000
      4 CG          -2.3050    -0.6880     0.0010 c3         1 3K0      -0.199400
      5 CB          -1.4280     0.5930     0.0240 c3         1 3K0      -0.042400
      6 CA          -0.0130     0.4220    -0.5930 c3         1 3K0       0.081500
      7 C            0.6620     1.8410    -0.7950 c          1 3K0       0.711000
      8 OXT          0.4200     2.4630    -1.8210 o          1 3K0      -0.744000
      9 O            1.4570     2.2380     0.0510 o          1 3K0      -0.744000
     10 N            0.7860    -0.5540     0.2330 n7         1 3K0      -0.862300
     11 SAN          2.3090    -0.9400    -0.2130 s6         1 3K0       1.258200
     12 OAD          2.5770    -2.3080     0.2120 o          1 3K0      -0.609500
     13 OAE          2.5600    -0.4670    -1.5660 o          1 3K0      -0.609500
     14 NAA          3.1020     0.0560     0.7560 n8         1 3K0      -1.063100
     15 H2          -1.8070    -1.4150     0.6550 hc         1 3K0       0.016700
     16 H3          -2.3520    -1.0000    -1.0500 hc         1 3K0       0.016700
     17 H4          -1.9530     1.3790    -0.5330 hc         1 3K0       0.048200
     18 H5          -1.3340     0.9570     1.0550 hc         1 3K0       0.048200
     19 H6          -0.1480     0.0130    -1.6040 h1         1 3K0       0.064700
     20 H8           1.0240    -0.1040     1.1130 hn         1 3K0       0.479000
     21 H9           2.6970     0.9530     0.4580 hn         1 3K0       0.480500
     22 H10          4.0150     0.0590     0.3120 hn         1 3K0       0.480500
@<TRIPOS>BOND
     1     1     2 1   
     2     2     3 1   
     3     2     4 1   
     4     4     5 1   
     5     4    15 1   
     6     4    16 1   
     7     5     6 1   
     8     5    17 1   
     9     5    18 1   
    10     6     7 1   
    11     6    10 1   
    12     6    19 1   
    13     7     8 1   
    14     7     9 1   
    15    10    11 1   
    16    10    20 1   
    17    11    12 2   
    18    11    13 2   
    19    11    14 1   
    20    14    21 1   
    21    14    22 1   
@<TRIPOS>SUBSTRUCTURE
     1 3K0         1 TEMP              0 ****  ****    0 ROOT
