@<TRIPOS>MOLECULE
3K1
   27    29     1     0     0
SMALL
No Charge or Current Charge


@<TRIPOS>ATOM
      1 O01         -5.9570    -0.3450    -0.0250 oh         1 3K1      -0.491100
      2 C02         -4.5950    -0.3760    -0.0310 cc         1 3K1      -0.018100
      3 C03         -3.8800    -1.5210    -0.3530 cd         1 3K1      -0.045400
      4 N04         -2.4750    -1.4830    -0.3380 nd         1 3K1      -0.597300
      5 C05         -1.8900    -0.3220    -0.0200 cc         1 3K1       0.517500
      6 C06         -0.4200    -0.2140     0.0230 ca         1 3K1      -0.120900
      7 C07          0.3740    -1.3580     0.2630 ca         1 3K1      -0.079000
      8 C08          1.7770    -1.2760     0.2710 ca         1 3K1      -0.082500
      9 C09          2.4320    -0.0510     0.0230 ca         1 3K1      -0.122500
     10 C10          1.6430     1.0880    -0.2460 ca         1 3K1      -0.082500
     11 C11          0.2390     1.0070    -0.2540 ca         1 3K1      -0.079000
     12 C12          3.9020     0.0200     0.0330 cc         1 3K1       0.451000
     13 N13          4.7430    -0.9720     0.2490 nd         1 3K1      -0.381000
     14 N14          6.0090    -0.4430     0.1610 nd         1 3K1      -0.037000
     15 N15          5.9820     0.8360    -0.1000 nc         1 3K1      -0.198800
     16 N16          4.6610     1.1350    -0.1830 na         1 3K1      -0.209700
     17 N17         -2.5860     0.8060     0.3140 ns         1 3K1      -0.407400
     18 C18         -3.9320     0.9000     0.3400 c          1 3K1       0.562200
     19 O19         -4.4940     1.9440     0.6460 o          1 3K1      -0.511000
     20 H011        -6.2880    -1.2340    -0.2820 ho         1 3K1       0.468000
     21 H031        -4.3530    -2.4650    -0.6200 h4         1 3K1       0.213000
     22 H071        -0.0950    -2.3200     0.4570 ha         1 3K1       0.134000
     23 H081         2.3530    -2.1770     0.4720 ha         1 3K1       0.131000
     24 H101         2.1070     2.0480    -0.4600 ha         1 3K1       0.131000
     25 H111        -0.3270     1.9050    -0.4930 ha         1 3K1       0.134000
     26 H161         4.3280     2.0700    -0.3780 hn         1 3K1       0.388000
     27 H1          -2.0790     1.6340     0.5840 hn         1 3K1       0.334500
@<TRIPOS>BOND
     1     1     2 1   
     2     1    20 1   
     3     2     3 2   
     4     2    18 1   
     5     3     4 1   
     6     3    21 1   
     7     4     5 2   
     8     5     6 1   
     9     5    17 1   
    10     6     7 ar  
    11     6    11 ar  
    12     7     8 ar  
    13     7    22 1   
    14     8     9 ar  
    15     8    23 1   
    16     9    10 ar  
    17     9    12 1   
    18    10    11 ar  
    19    10    24 1   
    20    11    25 1   
    21    12    13 2   
    22    12    16 1   
    23    13    14 1   
    24    14    15 2   
    25    15    16 1   
    26    16    26 1   
    27    17    18 1   
    28    17    27 1   
    29    18    19 2   
@<TRIPOS>SUBSTRUCTURE
     1 3K1         1 TEMP              0 ****  ****    0 ROOT
