@<TRIPOS>MOLECULE
3K1
   27    29     1     0     0
SMALL
abcg2


@<TRIPOS>ATOM
      1 O01         -5.9090    -0.4090    -0.0660 oh         1 3K1      -0.491100
      2 C02         -4.5720    -0.4110    -0.0440 cc         1 3K1      -0.018100
      3 C03         -3.7680    -1.4780    -0.2900 cd         1 3K1      -0.045400
      4 N04         -2.4110    -1.4190    -0.2710 nd         1 3K1      -0.597300
      5 C05         -1.8570    -0.2890     0.0140 cc         1 3K1       0.517500
      6 C06         -0.3890    -0.1730     0.0240 ca         1 3K1      -0.120900
      7 C07          0.3800    -1.3180     0.2390 ca         1 3K1      -0.079000
      8 C08          1.7580    -1.2470     0.2410 ca         1 3K1      -0.082500
      9 C09          2.4020    -0.0290     0.0160 ca         1 3K1      -0.122500
     10 C10          1.6380     1.1130    -0.2060 ca         1 3K1      -0.082500
     11 C11          0.2560     1.0410    -0.2010 ca         1 3K1      -0.079000
     12 C12          3.8570     0.0130     0.0180 cc         1 3K1       0.451000
     13 N13          4.6660    -1.0010     0.2330 nd         1 3K1      -0.381000
     14 N14          5.9030    -0.5250     0.1410 nd         1 3K1      -0.037000
     15 N15          5.8980     0.7230    -0.1180 nc         1 3K1      -0.198800
     16 N16          4.6300     1.0820    -0.2000 na         1 3K1      -0.209700
     17 N17         -2.5950     0.8160     0.3010 ns         1 3K1      -0.407400
     18 C18         -3.9720     0.8670     0.2930 c          1 3K1       0.562200
     19 O19         -4.5850     1.8870     0.5550 o          1 3K1      -0.511000
     20 H011        -6.2440    -1.2820    -0.3050 ho         1 3K1       0.468000
     21 H031        -4.1970    -2.4440    -0.5320 h4         1 3K1       0.213000
     22 H071        -0.1070    -2.2670     0.4160 ha         1 3K1       0.134000
     23 H081         2.3390    -2.1420     0.4200 ha         1 3K1       0.131000
     24 H101         2.1010     2.0720    -0.3970 ha         1 3K1       0.131000
     25 H111        -0.3010     1.9460    -0.4050 ha         1 3K1       0.134000
     26 H161         4.3860     2.0410    -0.4010 hn         1 3K1       0.388000
     27 H1          -2.1280     1.6710     0.5770 hn         1 3K1       0.334500
@<TRIPOS>BOND
     1     1     2 1   
     2     1    20 1   
     3     2     3 2   
     4     2    18 1   
     5     3     4 1   
     6     3    21 1   
     7     4     5 2   
     8     5     6 1   
     9     5    17 1   
    10     6     7 ar  
    11     6    11 ar  
    12     7     8 ar  
    13     7    22 1   
    14     8     9 ar  
    15     8    23 1   
    16     9    10 ar  
    17     9    12 1   
    18    10    11 ar  
    19    10    24 1   
    20    11    25 1   
    21    12    13 2   
    22    12    16 1   
    23    13    14 1   
    24    14    15 2   
    25    15    16 1   
    26    16    26 1   
    27    17    18 1   
    28    17    27 1   
    29    18    19 2   
@<TRIPOS>SUBSTRUCTURE
     1 3K1         1 TEMP              0 ****  ****    0 ROOT
