@<TRIPOS>MOLECULE
3K2
   69    73     1     0     0
SMALL
No Charge or Current Charge


@<TRIPOS>ATOM
      1 C01          2.0950    -1.2570     0.5530 ca         1 3K2      -0.197600
      2 C02          1.4550    -0.1650    -0.1050 ca         1 3K2      -0.080000
      3 C03          0.2220    -0.3400    -0.7690 ca         1 3K2      -0.121000
      4 C04         -0.3570    -1.6180    -0.7720 ca         1 3K2      -0.015200
      5 C05          0.2480    -2.6660    -0.1400 ca         1 3K2      -0.111800
      6 C06          1.4710    -2.5310     0.5310 ca         1 3K2       0.001000
      7 N07         -1.5490    -2.0640    -1.3320 na         1 3K2      -0.076700
      8 C08         -1.7400    -3.4330    -1.0520 cc         1 3K2      -0.038300
      9 C09         -0.6180    -3.8110    -0.3200 cd         1 3K2      -0.135400
     10 C10         -0.3440    -5.1950     0.2140 c3         1 3K2      -0.012900
     11 C11         -2.9320    -4.2460    -1.4880 c3         1 3K2      -0.038900
     12 C12         -2.4330    -1.1880    -2.1260 c3         1 3K2       0.127900
     13 C13         -3.6180    -0.6140    -1.3480 ca         1 3K2      -0.146300
     14 C14          3.4160    -1.1030     1.2740 c          1 3K2       0.620700
     15 O15          3.9630    -2.0420     1.8360 o          1 3K2      -0.615100
     16 N16          3.9760     0.1540     1.2660 ns         1 3K2      -0.514900
     17 C17          5.2470     0.5090     1.8960 c3         1 3K2       0.159000
     18 C18          6.3990     0.3900     0.8980 ca         1 3K2      -0.027300
     19 C19          5.1560     1.9090     2.5320 c3         1 3K2      -0.107100
     20 C20         -4.8770    -0.5170    -1.9700 ca         1 3K2      -0.106000
     21 C21         -5.9790     0.0050    -1.2710 ca         1 3K2      -0.087000
     22 C22         -5.8500     0.4560     0.0640 cp         1 3K2       0.039000
     23 C23         -4.5800     0.3470     0.6810 ca         1 3K2      -0.087000
     24 C24         -3.4770    -0.1760    -0.0160 ca         1 3K2      -0.106000
     25 C25         -7.0370     0.9790     0.8110 cp         1 3K2      -0.042000
     26 C26         -8.2100     0.1840     0.8700 ca         1 3K2      -0.121000
     27 C27         -9.3380     0.5930     1.6010 ca         1 3K2      -0.149000
     28 C28         -9.3220     1.8110     2.2970 ca         1 3K2      -0.129000
     29 C29         -8.1810     2.6270     2.2520 ca         1 3K2      -0.096000
     30 C30         -7.0500     2.2240     1.5130 ca         1 3K2      -0.099600
     31 C31          6.4720     1.2320    -0.2290 ca         1 3K2      -0.108500
     32 C32          7.5320     1.1140    -1.1450 ca         1 3K2      -0.046000
     33 C33          8.5410     0.1430    -0.9490 ca         1 3K2      -0.185200
     34 C34          8.4630    -0.7060     0.1800 ca         1 3K2      -0.046000
     35 C35          7.4000    -0.5810     1.0910 ca         1 3K2      -0.108500
     36 N36          9.6730     0.0130    -1.9230 no         1 3K2       0.696200
     37 O37          9.6990     0.7770    -2.8970 o          1 3K2      -0.409000
     38 O38         10.5330    -0.8520    -1.7100 o          1 3K2      -0.409000
     39 C39         -5.8380     3.1250     1.3960 c          1 3K2       0.708600
     40 O40         -5.4000     3.6220     2.4240 o          1 3K2      -0.711000
     41 O41         -5.4300     3.4230     0.2820 o          1 3K2      -0.711000
     42 H1           1.8970     0.8280    -0.1080 ha         1 3K2       0.101000
     43 H2          -0.2590     0.5030    -1.2580 ha         1 3K2       0.126000
     44 H3           1.9230    -3.3870     1.0260 ha         1 3K2       0.131000
     45 H4          -0.7340    -5.9670    -0.4600 hc         1 3K2       0.034367
     46 H5           0.7310    -5.3760     0.3280 hc         1 3K2       0.034367
     47 H6          -0.8150    -5.3360     1.1940 hc         1 3K2       0.034367
     48 H7          -2.8160    -4.5760    -2.5270 hc         1 3K2       0.050367
     49 H8          -3.0570    -5.1360    -0.8610 hc         1 3K2       0.050367
     50 H9          -3.8560    -3.6610    -1.4170 hc         1 3K2       0.050367
     51 H10         -1.8480    -0.3640    -2.5500 h1         1 3K2       0.055200
     52 H11         -2.8080    -1.7740    -2.9750 h1         1 3K2       0.055200
     53 H12          3.4630     0.8750     0.7790 hn         1 3K2       0.326500
     54 H13          5.4300    -0.1970     2.7180 h1         1 3K2       0.068700
     55 H14          4.9290     2.6750     1.7820 hc         1 3K2       0.047700
     56 H15          4.3690     1.9320     3.2950 hc         1 3K2       0.047700
     57 H16          6.1060     2.1700     3.0150 hc         1 3K2       0.047700
     58 H17         -5.0070    -0.8500    -2.9980 ha         1 3K2       0.101000
     59 H18         -6.9440     0.0690    -1.7670 ha         1 3K2       0.122500
     60 H19         -4.4550     0.6640     1.7130 ha         1 3K2       0.122500
     61 H20         -2.5160    -0.2400     0.4880 ha         1 3K2       0.101000
     62 H21         -8.2350    -0.7730     0.3530 ha         1 3K2       0.088000
     63 H22        -10.2220    -0.0400     1.6340 ha         1 3K2       0.086000
     64 H23        -10.1940     2.1260     2.8650 ha         1 3K2       0.088000
     65 H24         -8.1770     3.5800     2.7780 ha         1 3K2       0.122000
     66 H25          5.7030     1.9810    -0.4030 ha         1 3K2       0.129000
     67 H26          7.5590     1.7800    -2.0060 ha         1 3K2       0.146500
     68 H27          9.2220    -1.4660     0.3600 ha         1 3K2       0.146500
     69 H28          7.3560    -1.2450     1.9510 ha         1 3K2       0.129000
@<TRIPOS>BOND
     1     1     2 ar  
     2     1     6 ar  
     3     1    14 1   
     4     2     3 ar  
     5     2    42 1   
     6     3     4 ar  
     7     3    43 1   
     8     4     5 ar  
     9     4     7 1   
    10     5     6 ar  
    11     5     9 1   
    12     6    44 1   
    13     7     8 1   
    14     7    12 1   
    15     8     9 2   
    16     8    11 1   
    17     9    10 1   
    18    10    45 1   
    19    10    46 1   
    20    10    47 1   
    21    11    48 1   
    22    11    49 1   
    23    11    50 1   
    24    12    13 1   
    25    12    51 1   
    26    12    52 1   
    27    13    20 ar  
    28    13    24 ar  
    29    14    15 2   
    30    14    16 1   
    31    16    17 1   
    32    16    53 1   
    33    17    18 1   
    34    17    19 1   
    35    17    54 1   
    36    18    31 ar  
    37    18    35 ar  
    38    19    55 1   
    39    19    56 1   
    40    19    57 1   
    41    20    21 ar  
    42    20    58 1   
    43    21    22 ar  
    44    21    59 1   
    45    22    23 ar  
    46    22    25 1   
    47    23    24 ar  
    48    23    60 1   
    49    24    61 1   
    50    25    26 ar  
    51    25    30 ar  
    52    26    27 ar  
    53    26    62 1   
    54    27    28 ar  
    55    27    63 1   
    56    28    29 ar  
    57    28    64 1   
    58    29    30 ar  
    59    29    65 1   
    60    30    39 1   
    61    31    32 ar  
    62    31    66 1   
    63    32    33 ar  
    64    32    67 1   
    65    33    34 ar  
    66    33    36 1   
    67    34    35 ar  
    68    34    68 1   
    69    35    69 1   
    70    36    37 1   
    71    36    38 1   
    72    39    40 1   
    73    39    41 1   
@<TRIPOS>SUBSTRUCTURE
     1 3K2         1 TEMP              0 ****  ****    0 ROOT
