@<TRIPOS>MOLECULE
3K2
   69    73     1     0     0
SMALL
abcg2


@<TRIPOS>ATOM
      1 C01          2.0930    -0.9970     0.2030 ca         1 3K2      -0.197600
      2 C02          1.4730     0.0230    -0.5460 ca         1 3K2      -0.080000
      3 C03          0.2560    -0.1720    -1.1680 ca         1 3K2      -0.121000
      4 C04         -0.3490    -1.4190    -1.0340 ca         1 3K2      -0.015200
      5 C05          0.2520    -2.4580    -0.2910 ca         1 3K2      -0.111800
      6 C06          1.4840    -2.2400     0.3170 ca         1 3K2       0.001000
      7 N07         -1.5280    -1.8940    -1.5270 na         1 3K2      -0.076700
      8 C08         -1.7040    -3.2000    -1.0990 cc         1 3K2      -0.038300
      9 C09         -0.6290    -3.5850    -0.3440 cd         1 3K2      -0.135400
     10 C10         -0.3790    -4.9010     0.3080 c3         1 3K2      -0.012900
     11 C11         -2.9240    -3.9600    -1.4740 c3         1 3K2      -0.038900
     12 C12         -2.4980    -1.1260    -2.2630 c3         1 3K2       0.127900
     13 C13         -3.6460    -0.6220    -1.4220 ca         1 3K2      -0.146300
     14 C14          3.4100    -0.8100     0.8720 c          1 3K2       0.620700
     15 O15          4.1100    -1.7600     1.1980 o          1 3K2      -0.615100
     16 N16          3.8020     0.4600     1.1070 ns         1 3K2      -0.514900
     17 C17          5.0570     0.7500     1.7640 c3         1 3K2       0.159000
     18 C18          6.2420     0.3480     0.9160 ca         1 3K2      -0.027300
     19 C19          5.1240     2.2400     2.0860 c3         1 3K2      -0.107100
     20 C20         -4.8440    -0.2740    -2.0360 ca         1 3K2      -0.106000
     21 C21         -5.9060     0.2190    -1.2940 ca         1 3K2      -0.087000
     22 C22         -5.8010     0.3840     0.0860 cp         1 3K2       0.039000
     23 C23         -4.6010     0.0260     0.6970 ca         1 3K2      -0.087000
     24 C24         -3.5400    -0.4690    -0.0430 ca         1 3K2      -0.106000
     25 C25         -6.9560     0.8430     0.8880 cp         1 3K2      -0.042000
     26 C26         -8.1820     0.1980     0.7140 ca         1 3K2      -0.121000
     27 C27         -9.2920     0.5410     1.4710 ca         1 3K2      -0.149000
     28 C28         -9.1780     1.5260     2.4420 ca         1 3K2      -0.129000
     29 C29         -7.9580     2.1570     2.6370 ca         1 3K2      -0.096000
     30 C30         -6.8460     1.8500     1.8570 ca         1 3K2      -0.099600
     31 C31          6.2490     0.5630    -0.4600 ca         1 3K2      -0.108500
     32 C32          7.3590     0.2480    -1.2220 ca         1 3K2      -0.046000
     33 C33          8.4750    -0.2860    -0.5920 ca         1 3K2      -0.185200
     34 C34          8.4960    -0.5080     0.7780 ca         1 3K2      -0.046000
     35 C35          7.3740    -0.1880     1.5200 ca         1 3K2      -0.108500
     36 N36          9.6450    -0.6190    -1.3840 no         1 3K2       0.696200
     37 O37          9.6080    -0.4060    -2.5740 o          1 3K2      -0.409000
     38 O38         10.6020    -1.0930    -0.8170 o          1 3K2      -0.409000
     39 C39         -5.5820     2.6780     2.0480 c          1 3K2       0.708600
     40 O40         -5.2220     2.8670     3.2270 o          1 3K2      -0.711000
     41 O41         -5.0530     3.1200     1.0150 o          1 3K2      -0.711000
     42 H1           1.9550     0.9840    -0.6740 ha         1 3K2       0.101000
     43 H2          -0.1980     0.6260    -1.7410 ha         1 3K2       0.126000
     44 H3           1.9630    -3.0260     0.8870 ha         1 3K2       0.131000
     45 H4           0.5070    -5.3910    -0.1000 hc         1 3K2       0.034367
     46 H5          -0.2130    -4.7870     1.3810 hc         1 3K2       0.034367
     47 H6          -1.2160    -5.5860     0.1820 hc         1 3K2       0.034367
     48 H7          -3.0560    -4.0090    -2.5560 hc         1 3K2       0.050367
     49 H8          -2.8660    -4.9810    -1.1050 hc         1 3K2       0.050367
     50 H9          -3.8260    -3.5070    -1.0560 hc         1 3K2       0.050367
     51 H10         -1.9790    -0.2840    -2.7240 h1         1 3K2       0.055200
     52 H11         -2.8780    -1.7250    -3.0920 h1         1 3K2       0.055200
     53 H12          3.1550     1.2190     0.9700 hn         1 3K2       0.326500
     54 H13          5.1110     0.1910     2.7020 h1         1 3K2       0.068700
     55 H14          5.0830     2.8420     1.1770 hc         1 3K2       0.047700
     56 H15          4.2960     2.5300     2.7330 hc         1 3K2       0.047700
     57 H16          6.0530     2.4710     2.6030 hc         1 3K2       0.047700
     58 H17         -4.9530    -0.3910    -3.1080 ha         1 3K2       0.101000
     59 H18         -6.8270     0.4850    -1.7980 ha         1 3K2       0.122500
     60 H19         -4.4970     0.1190     1.7710 ha         1 3K2       0.122500
     61 H20         -2.6280    -0.7500     0.4700 ha         1 3K2       0.101000
     62 H21         -8.2610    -0.6020    -0.0130 ha         1 3K2       0.088000
     63 H22        -10.2330     0.0290     1.3150 ha         1 3K2       0.086000
     64 H23        -10.0330     1.7970     3.0490 ha         1 3K2       0.088000
     65 H24         -7.8720     2.9220     3.3980 ha         1 3K2       0.122000
     66 H25          5.3760     0.9750    -0.9490 ha         1 3K2       0.129000
     67 H26          7.3450     0.4190    -2.2880 ha         1 3K2       0.146500
     68 H27          9.3640    -0.9280     1.2650 ha         1 3K2       0.146500
     69 H28          7.3800    -0.3670     2.5880 ha         1 3K2       0.129000
@<TRIPOS>BOND
     1     1     2 ar  
     2     1     6 ar  
     3     1    14 1   
     4     2     3 ar  
     5     2    42 1   
     6     3     4 ar  
     7     3    43 1   
     8     4     5 ar  
     9     4     7 1   
    10     5     6 ar  
    11     5     9 1   
    12     6    44 1   
    13     7     8 1   
    14     7    12 1   
    15     8     9 2   
    16     8    11 1   
    17     9    10 1   
    18    10    45 1   
    19    10    46 1   
    20    10    47 1   
    21    11    48 1   
    22    11    49 1   
    23    11    50 1   
    24    12    13 1   
    25    12    51 1   
    26    12    52 1   
    27    13    20 ar  
    28    13    24 ar  
    29    14    15 2   
    30    14    16 1   
    31    16    17 1   
    32    16    53 1   
    33    17    18 1   
    34    17    19 1   
    35    17    54 1   
    36    18    31 ar  
    37    18    35 ar  
    38    19    55 1   
    39    19    56 1   
    40    19    57 1   
    41    20    21 ar  
    42    20    58 1   
    43    21    22 ar  
    44    21    59 1   
    45    22    23 ar  
    46    22    25 1   
    47    23    24 ar  
    48    23    60 1   
    49    24    61 1   
    50    25    26 ar  
    51    25    30 ar  
    52    26    27 ar  
    53    26    62 1   
    54    27    28 ar  
    55    27    63 1   
    56    28    29 ar  
    57    28    64 1   
    58    29    30 ar  
    59    29    65 1   
    60    30    39 1   
    61    31    32 ar  
    62    31    66 1   
    63    32    33 ar  
    64    32    67 1   
    65    33    34 ar  
    66    33    36 1   
    67    34    35 ar  
    68    34    68 1   
    69    35    69 1   
    70    36    37 1   
    71    36    38 1   
    72    39    40 1   
    73    39    41 1   
@<TRIPOS>SUBSTRUCTURE
     1 3K2         1 TEMP              0 ****  ****    0 ROOT
