@<TRIPOS>MOLECULE
3K3
   52    58     1     0     0
SMALL
No Charge or Current Charge


@<TRIPOS>ATOM
      1 F2          -9.4450    -2.0150     0.5620 f          1 3K3      -0.114333
      2 C19         -9.2020    -0.7130     0.2840 c3         1 3K3       0.359300
      3 F          -10.0260    -0.3770    -0.7350 f          1 3K3      -0.114333
      4 F1          -9.5950     0.0010     1.3620 f          1 3K3      -0.114333
      5 C18         -7.7300    -0.4530    -0.0490 ca         1 3K3      -0.220300
      6 C17         -7.3650     0.6150    -0.9120 ca         1 3K3      -0.051000
      7 C16         -6.0090     0.8630    -1.2110 ca         1 3K3      -0.116000
      8 C20         -6.7140    -1.2620     0.5230 ca         1 3K3       0.010000
      9 C21         -5.3720    -0.9940     0.2090 ca         1 3K3       0.060400
     10 C15         -5.0470     0.0310    -0.6290 ca         1 3K3      -0.055200
     11 N           -3.6890     0.0690    -0.7600 na         1 3K3      -0.302600
     12 N1          -4.2430    -1.6580     0.6550 nc         1 3K3      -0.576100
     13 C14         -3.2460    -0.9840     0.0480 cd         1 3K3       0.453800
     14 C13         -1.8440    -1.3960     0.2740 cx         1 3K3      -0.184000
     15 C9          -1.3220    -1.6050     1.6780 cx         1 3K3       0.132300
     16 O2          -0.2380    -2.5200     1.8960 os         1 3K3      -0.286100
     17 C10         -0.8480    -0.4230     0.8680 cx         1 3K3      -0.061400
     18 C11          0.6000    -0.6530     0.7920 ca         1 3K3      -0.142300
     19 C8           0.8720    -1.8700     1.3920 ca         1 3K3       0.113100
     20 C7           2.1820    -2.3630     1.4530 ca         1 3K3      -0.120000
     21 C6           3.2210    -1.5860     0.8960 ca         1 3K3      -0.078000
     22 C12          1.6090     0.1410     0.2310 ca         1 3K3      -0.047000
     23 C5           2.9360    -0.3320     0.2960 ca         1 3K3       0.052100
     24 O1           3.9380     0.4290    -0.2630 os         1 3K3      -0.243200
     25 C4           5.1910     0.5410     0.2950 ca         1 3K3       0.201100
     26 C22          5.3620     0.6410     1.6840 ca         1 3K3      -0.270000
     27 C23          6.6570     0.7540     2.2080 ca         1 3K3       0.401900
     28 N2           7.7620     0.7760     1.4310 nb         1 3K3      -0.732000
     29 C24          7.5750     0.6950     0.1040 ca         1 3K3       0.511900
     30 N3           8.7460     0.7250    -0.6390 ns         1 3K3      -0.323900
     31 C            8.8280     0.8210    -2.0030 c          1 3K3       0.576000
     32 O            9.8860     0.6810    -2.5980 o          1 3K3      -0.530000
     33 C3           6.3280     0.5840    -0.5240 ca         1 3K3      -0.207300
     34 C2           6.2600     0.4600    -2.0510 c6         1 3K3      -0.005100
     35 C1           7.5030     1.0870    -2.7380 c6         1 3K3      -0.165400
     36 H1          -8.1280     1.2560    -1.3500 ha         1 3K3       0.130000
     37 H2          -5.7240     1.6780    -1.8730 ha         1 3K3       0.127000
     38 H3          -6.9540    -2.0790     1.1990 ha         1 3K3       0.148000
     39 H4          -3.1180     0.6980    -1.3100 hn         1 3K3       0.364000
     40 H6          -1.4790    -2.0720    -0.4930 hc         1 3K3       0.104700
     41 H7          -1.9920    -1.4470     2.5260 h1         1 3K3       0.145700
     42 H8          -1.1660     0.5670     1.1930 hc         1 3K3       0.134700
     43 H9           2.3890    -3.3240     1.9190 ha         1 3K3       0.141000
     44 H10          4.2410    -1.9590     0.9260 ha         1 3K3       0.136000
     45 H11          1.3780     1.0930    -0.2400 ha         1 3K3       0.139000
     46 H12          4.5090     0.6340     2.3550 ha         1 3K3       0.140000
     47 H13          6.8170     0.8290     3.2830 h4         1 3K3       0.024100
     48 H14          9.6060     0.5940    -0.1260 hn         1 3K3       0.174000
     49 H15          6.1950    -0.6040    -2.3170 hc         1 3K3       0.063700
     50 H16          5.3470     0.9320    -2.4420 hc         1 3K3       0.063700
     51 H17          7.3590     2.1740    -2.6770 hc         1 3K3       0.077200
     52 H18          7.5910     0.8290    -3.8020 hc         1 3K3       0.077200
@<TRIPOS>BOND
     1     1     2 1   
     2     2     3 1   
     3     2     4 1   
     4     2     5 1   
     5     5     6 ar  
     6     5     8 ar  
     7     6     7 ar  
     8     6    36 1   
     9     7    10 ar  
    10     7    37 1   
    11     8     9 ar  
    12     8    38 1   
    13     9    10 ar  
    14     9    12 1   
    15    10    11 1   
    16    11    13 1   
    17    11    39 1   
    18    12    13 2   
    19    13    14 1   
    20    14    15 1   
    21    14    17 1   
    22    14    40 1   
    23    15    16 1   
    24    15    17 1   
    25    15    41 1   
    26    16    19 1   
    27    17    18 1   
    28    17    42 1   
    29    18    19 ar  
    30    18    22 ar  
    31    19    20 ar  
    32    20    21 ar  
    33    20    43 1   
    34    21    23 ar  
    35    21    44 1   
    36    22    23 ar  
    37    22    45 1   
    38    23    24 1   
    39    24    25 1   
    40    25    26 ar  
    41    25    33 ar  
    42    26    27 ar  
    43    26    46 1   
    44    27    28 ar  
    45    27    47 1   
    46    28    29 ar  
    47    29    30 1   
    48    29    33 ar  
    49    30    31 1   
    50    30    48 1   
    51    31    32 2   
    52    31    35 1   
    53    33    34 1   
    54    34    35 1   
    55    34    49 1   
    56    34    50 1   
    57    35    51 1   
    58    35    52 1   
@<TRIPOS>SUBSTRUCTURE
     1 3K3         1 TEMP              0 ****  ****    0 ROOT
