@<TRIPOS>MOLECULE
3K3
   52    58     1     0     0
SMALL
abcg2


@<TRIPOS>ATOM
      1 F2          -7.9820     1.7830     2.1570 f          1 3K3      -0.114333
      2 C19         -8.2170     1.3700     0.9080 c3         1 3K3       0.359300
      3 F           -9.3440     0.6410     0.9460 f          1 3K3      -0.114333
      4 F1          -8.5070     2.4650     0.1860 f          1 3K3      -0.114333
      5 C18         -7.0760     0.6040     0.3250 ca         1 3K3      -0.220300
      6 C17         -7.2520     0.0310    -0.9470 ca         1 3K3      -0.051000
      7 C16         -6.2400    -0.6800    -1.5600 ca         1 3K3      -0.116000
      8 C20         -5.8810     0.4810     1.0150 ca         1 3K3       0.010000
      9 C21         -4.8550    -0.2360     0.4090 ca         1 3K3       0.060400
     10 C15         -5.0460    -0.8020    -0.8620 ca         1 3K3      -0.055200
     11 N           -3.8610    -1.4190    -1.1460 na         1 3K3      -0.302600
     12 N1          -3.5890    -0.5100     0.8620 nc         1 3K3      -0.576100
     13 C14         -3.0330    -1.2150    -0.0870 cd         1 3K3       0.453800
     14 C13         -1.6780    -1.7620    -0.0490 cx         1 3K3      -0.184000
     15 C9          -1.2140    -2.3330     1.2630 cx         1 3K3       0.132300
     16 O2          -0.2140    -3.3180     1.2120 os         1 3K3      -0.286100
     17 C10         -0.6510    -1.0280     0.8050 cx         1 3K3      -0.061400
     18 C11          0.7470    -1.3740     0.4830 ca         1 3K3      -0.142300
     19 C8           0.9090    -2.7370     0.7210 ca         1 3K3       0.113100
     20 C7           2.1010    -3.3900     0.4800 ca         1 3K3      -0.120000
     21 C6           3.1670    -2.6260     0.0190 ca         1 3K3      -0.078000
     22 C12          1.8080    -0.6140     0.0320 ca         1 3K3      -0.047000
     23 C5           3.0170    -1.2630    -0.1920 ca         1 3K3       0.052100
     24 O1           4.0840    -0.5380    -0.6810 os         1 3K3      -0.243200
     25 C4           4.9740    -0.0150     0.1870 ca         1 3K3       0.201100
     26 C22          4.8630    -0.1280     1.5720 ca         1 3K3      -0.270000
     27 C23          5.8640     0.4330     2.3410 ca         1 3K3       0.401900
     28 N2           6.9110     1.0820     1.8460 nb         1 3K3      -0.732000
     29 C24          6.9830     1.1850     0.5280 ca         1 3K3       0.511900
     30 N3           8.0970     1.8510     0.0350 ns         1 3K3      -0.323900
     31 C            8.2380     2.3240    -1.2360 c          1 3K3       0.576000
     32 O            9.2400     2.9190    -1.5820 o          1 3K3      -0.530000
     33 C3           6.0550     0.6590    -0.3680 ca         1 3K3      -0.207300
     34 C2           6.3070     0.8010    -1.8380 c6         1 3K3      -0.005100
     35 C1           7.0460     2.1010    -2.1290 c6         1 3K3      -0.165400
     36 H1          -8.1960     0.1390    -1.4650 ha         1 3K3       0.130000
     37 H2          -6.3830    -1.1190    -2.5380 ha         1 3K3       0.127000
     38 H3          -5.7290     0.9170     1.9930 ha         1 3K3       0.148000
     39 H4          -3.6370    -1.9380    -1.9810 hn         1 3K3       0.364000
     40 H6          -1.3290    -2.2270    -0.9650 hc         1 3K3       0.104700
     41 H7          -1.9120    -2.4530     2.0820 h1         1 3K3       0.145700
     42 H8          -0.9210    -0.0760     1.2430 hc         1 3K3       0.134700
     43 H9           2.2140    -4.4520     0.6550 ha         1 3K3       0.141000
     44 H10          4.1220    -3.0980    -0.1760 ha         1 3K3       0.136000
     45 H11          1.7060     0.4480    -0.1500 ha         1 3K3       0.139000
     46 H12          4.0380    -0.6370     2.0490 ha         1 3K3       0.140000
     47 H13          5.8150     0.3530     3.4210 h4         1 3K3       0.024100
     48 H14          8.8150     2.0850     0.7080 hn         1 3K3       0.174000
     49 H15          6.8980    -0.0510    -2.1910 hc         1 3K3       0.063700
     50 H16          5.3770     0.7860    -2.4040 hc         1 3K3       0.063700
     51 H17          6.3710     2.9500    -1.9730 hc         1 3K3       0.077200
     52 H18          7.3740     2.1420    -3.1660 hc         1 3K3       0.077200
@<TRIPOS>BOND
     1     1     2 1   
     2     2     3 1   
     3     2     4 1   
     4     2     5 1   
     5     5     6 ar  
     6     5     8 ar  
     7     6     7 ar  
     8     6    36 1   
     9     7    10 ar  
    10     7    37 1   
    11     8     9 ar  
    12     8    38 1   
    13     9    10 ar  
    14     9    12 1   
    15    10    11 1   
    16    11    13 1   
    17    11    39 1   
    18    12    13 2   
    19    13    14 1   
    20    14    15 1   
    21    14    17 1   
    22    14    40 1   
    23    15    16 1   
    24    15    17 1   
    25    15    41 1   
    26    16    19 1   
    27    17    18 1   
    28    17    42 1   
    29    18    19 ar  
    30    18    22 ar  
    31    19    20 ar  
    32    20    21 ar  
    33    20    43 1   
    34    21    23 ar  
    35    21    44 1   
    36    22    23 ar  
    37    22    45 1   
    38    23    24 1   
    39    24    25 1   
    40    25    26 ar  
    41    25    33 ar  
    42    26    27 ar  
    43    26    46 1   
    44    27    28 ar  
    45    27    47 1   
    46    28    29 ar  
    47    29    30 1   
    48    29    33 ar  
    49    30    31 1   
    50    30    48 1   
    51    31    32 2   
    52    31    35 1   
    53    33    34 1   
    54    34    35 1   
    55    34    49 1   
    56    34    50 1   
    57    35    51 1   
    58    35    52 1   
@<TRIPOS>SUBSTRUCTURE
     1 3K3         1 TEMP              0 ****  ****    0 ROOT
