@<TRIPOS>MOLECULE
3K4
   13    13     1     0     0
SMALL
No Charge or Current Charge


@<TRIPOS>ATOM
      1 C5           1.4650    -0.2230    -0.3340 cx         1 3K4       0.043500
      2 C7           1.4250    -1.3810     0.6590 c3         1 3K4      -0.043100
      3 O           -1.6180     0.9050     0.8270 o          1 3K4      -0.724000
      4 C           -1.1100     0.1930    -0.0300 c          1 3K4       0.744000
      5 C2           0.2420     0.6190    -0.6440 cx         1 3K4      -0.035500
      6 N6           1.3980     1.1760     0.1360 n5         1 3K4      -0.769400
      7 H1           2.1700    -0.3910    -1.1490 h1         1 3K4       0.022700
      8 H2           0.9950    -2.2750     0.1940 hc         1 3K4       0.032033
      9 H3           2.4370    -1.6330     0.9970 hc         1 3K4       0.032033
     10 H4           0.8280    -1.1370     1.5460 hc         1 3K4       0.032033
     11 H6           0.1510     1.0260    -1.6510 h1         1 3K4       0.043700
     12 H7           1.9630     1.7760    -0.4830 hn         1 3K4       0.347000
     13 O1          -1.6580    -0.8020    -0.4870 o          1 3K4      -0.724000
@<TRIPOS>BOND
     1     1     2 1   
     2     1     5 1   
     3     1     6 1   
     4     1     7 1   
     5     2     8 1   
     6     2     9 1   
     7     2    10 1   
     8     3     4 1   
     9     4     5 1   
    10     4    13 1   
    11     5     6 1   
    12     5    11 1   
    13     6    12 1   
@<TRIPOS>SUBSTRUCTURE
     1 3K4         1 TEMP              0 ****  ****    0 ROOT
