@<TRIPOS>MOLECULE
3K4
   13    13     1     0     0
SMALL
bcc


@<TRIPOS>ATOM
      1 C5           1.4480    -0.2640    -0.3330 cx         1 3K4       0.043500
      2 C7           1.4720    -1.3230     0.7320 c3         1 3K4      -0.043100
      3 O           -1.2420     0.3870     1.1600 o          1 3K4      -0.829300
      4 C           -1.1250     0.2560    -0.0720 c          1 3K4       0.954600
      5 C2           0.2320     0.5090    -0.7060 cx         1 3K4      -0.035500
      6 N6           1.2960     1.1150     0.0830 n5         1 3K4      -0.714200
      7 H1           2.1340    -0.4510    -1.1560 h1         1 3K4       0.022700
      8 H2           1.2470    -2.3010     0.3030 hc         1 3K4       0.032033
      9 H3           2.4610    -1.3860     1.1900 hc         1 3K4       0.032033
     10 H4           0.7440    -1.1150     1.5120 hc         1 3K4       0.032033
     11 H6           0.1850     0.7870    -1.7560 h1         1 3K4       0.043700
     12 H7           1.8550     1.7290    -0.4980 hn         1 3K4       0.291800
     13 O1          -2.0170    -0.0910    -0.8770 o          1 3K4      -0.829300
@<TRIPOS>BOND
     1     1     2 1   
     2     1     5 1   
     3     1     6 1   
     4     1     7 1   
     5     2     8 1   
     6     2     9 1   
     7     2    10 1   
     8     3     4 1   
     9     4     5 1   
    10     4    13 1   
    11     5     6 1   
    12     5    11 1   
    13     6    12 1   
@<TRIPOS>SUBSTRUCTURE
     1 3K4         1 TEMP              0 ****  ****    0 ROOT
