@<TRIPOS>MOLECULE
3K5
  109   115     1     0     0
SMALL
No Charge or Current Charge


@<TRIPOS>ATOM
      1 C1          28.3840   -47.0960    79.4420 c6         1 3K5      -0.091700
      2 C2          29.4480   -46.9450    80.5730 c6         1 3K5       0.168600
      3 C           27.9890   -48.5820    79.2050 c3         1 3K5      -0.076100
      4 O1          26.2410   -46.7150    80.6300 os         1 3K5      -0.432100
      5 O2          24.4040   -45.5880    79.8530 o          1 3K5      -0.500000
      6 O15         19.3030   -41.1830    86.2110 o          1 3K5      -0.510000
      7 C39         19.5530   -39.0570    87.3540 c3         1 3K5      -0.152100
      8 O14         21.2820   -40.7110    87.2550 os         1 3K5      -0.438100
      9 C34         21.9180   -41.9820    86.9460 c6         1 3K5       0.141300
     10 C33         23.1530   -42.1970    87.8750 c6         1 3K5       0.151300
     11 O16         22.7900   -42.1290    89.2780 oh         1 3K5      -0.725000
     12 C35         22.3500   -42.0970    85.4390 c6         1 3K5       0.123300
     13 O13         21.2260   -42.0150    84.5330 oh         1 3K5      -0.726000
     14 C36         23.1450   -43.4260    85.2080 c6         1 3K5       0.169300
     15 C37         23.7660   -43.5160    83.7930 c3         1 3K5      -0.087100
     16 O12         24.2410   -43.5290    86.1390 os         1 3K5      -0.476000
     17 C32         23.8290   -43.5560    87.5140 c6         1 3K5       0.360300
     18 O11         24.9940   -43.7680    88.3290 os         1 3K5      -0.445000
     19 C25         25.3940   -45.1560    88.4890 c6         1 3K5       0.142300
     20 C26         24.7210   -45.7660    89.7580 c6         1 3K5       0.144300
     21 O9          23.2800   -45.8080    89.5940 os         1 3K5      -0.452100
     22 C30         22.4310   -45.5740    90.6430 c          1 3K5       0.604100
     23 C31         20.9790   -45.7520    90.2250 c3         1 3K5      -0.149100
     24 O10         22.7780   -45.2350    91.7650 o          1 3K5      -0.484000
     25 C27         25.2820   -47.1900    90.0840 c6         1 3K5       0.132300
     26 O8          24.7510   -47.6950    91.3280 oh         1 3K5      -0.710000
     27 C28         26.8420   -47.1590    90.0960 c6         1 3K5       0.152300
     28 C29         27.4810   -48.5630    90.2530 c3         1 3K5      -0.088100
     29 O7          27.3230   -46.6370    88.8420 os         1 3K5      -0.469000
     30 C24         26.9470   -45.2700    88.5910 c6         1 3K5       0.383300
     31 O6          27.5610   -44.8860    87.3540 os         1 3K5      -0.415100
     32 C23         27.8600   -43.5730    87.1140 c          1 3K5       0.607100
     33 O5          27.8830   -42.7160    87.9860 o          1 3K5      -0.478000
     34 C20         28.4370   -43.3140    85.7060 c6         1 3K5      -0.110700
     35 C19         29.5000   -44.3820    85.3110 c6         1 3K5      -0.069400
     36 C18         30.2340   -44.0260    83.9910 c6         1 3K5      -0.054400
     37 C21         27.3010   -43.3790    84.6380 c6         1 3K5      -0.070400
     38 C22         27.8170   -43.3540    83.1710 c5         1 3K5       0.179300
     39 C17         29.3570   -43.1860    83.0090 c5         1 3K5      -0.073700
     40 C15         29.4380   -43.6720    81.5650 cx         1 3K5       0.045000
     41 O3          29.7340   -42.7230    80.5130 op         1 3K5      -0.442000
     42 C16         30.7560   -43.7030    80.8440 cx         1 3K5       0.105600
     43 O4          27.4970   -44.6030    82.5100 os         1 3K5      -0.442000
     44 C3          28.3990   -44.8160    81.4000 c5         1 3K5       0.420000
     45 O           29.0240   -46.1020    81.6680 os         1 3K5      -0.452000
     46 C4          27.6200   -44.7770    80.0530 c6         1 3K5      -0.119400
     47 C5          27.1450   -46.1820    79.6420 c6         1 3K5       0.189300
     48 C6          24.9570   -46.2520    80.7170 c          1 3K5       0.596300
     49 C7          24.3150   -46.5880    82.0140 ce         1 3K5      -0.267200
     50 C8          24.9210   -47.2010    83.0760 cf         1 3K5      -0.076200
     51 C9          24.3710   -47.5070    84.4120 ca         1 3K5      -0.076800
     52 C14         23.0810   -47.0830    84.8010 ca         1 3K5      -0.089000
     53 C13         22.5890   -47.3800    86.0840 ca         1 3K5      -0.117000
     54 C12         23.3740   -48.1130    86.9870 ca         1 3K5      -0.087000
     55 C11         24.6580   -48.5390    86.6090 ca         1 3K5      -0.117000
     56 C10         25.1560   -48.2310    85.3320 ca         1 3K5      -0.089000
     57 H1          28.8690   -46.7810    78.5070 hc         1 3K5       0.051700
     58 H2          29.7130   -47.9300    80.9820 h1         1 3K5       0.046700
     59 H3          30.3690   -46.5260    80.1440 h1         1 3K5       0.046700
     60 H4          28.8660   -49.1870    78.9440 hc         1 3K5       0.041033
     61 H5          27.5360   -49.0250    80.1000 hc         1 3K5       0.041033
     62 H6          27.2680   -48.6740    78.3840 hc         1 3K5       0.041033
     63 H7          18.5300   -38.8160    87.0460 hc         1 3K5       0.075367
     64 H8          19.6750   -39.0090    88.4410 hc         1 3K5       0.075367
     65 H9          20.2730   -38.3090    87.0050 hc         1 3K5       0.075367
     66 H10         21.2030   -42.7880    87.1700 h1         1 3K5       0.075700
     67 H12         23.6160   -42.3170    89.7820 ho         1 3K5       0.534000
     68 H13         23.0410   -41.2650    85.2350 h1         1 3K5       0.076700
     69 H14         20.4330   -41.7530    85.0730 ho         1 3K5       0.532000
     70 H15         22.4800   -44.2890    85.3560 h1         1 3K5       0.038700
     71 H16         24.4240   -44.3870    83.7110 hc         1 3K5       0.057367
     72 H17         22.9890   -43.6120    83.0250 hc         1 3K5       0.057367
     73 H18         24.3600   -42.6250    83.5600 hc         1 3K5       0.057367
     74 H19         23.1050   -44.3690    87.6670 h2         1 3K5       0.044700
     75 H20         25.0850   -45.7300    87.6040 h1         1 3K5       0.090700
     76 H21         24.9700   -45.1000    90.5970 h1         1 3K5       0.097700
     77 H22         20.2780   -45.5620    91.0450 hc         1 3K5       0.071033
     78 H23         20.7800   -45.1080    89.3620 hc         1 3K5       0.071033
     79 H24         20.8540   -46.7540    89.8010 hc         1 3K5       0.071033
     80 H25         24.9750   -47.8550    89.2660 h1         1 3K5       0.058700
     81 H26         24.8370   -48.6770    91.3100 ho         1 3K5       0.508000
     82 H27         27.2000   -46.5160    90.9140 h1         1 3K5       0.060700
     83 H28         27.2380   -49.0060    91.2260 hc         1 3K5       0.050033
     84 H29         27.1340   -49.2500    89.4720 hc         1 3K5       0.050033
     85 H30         28.5740   -48.5030    90.1860 hc         1 3K5       0.050033
     86 H31         27.3210   -44.6400    89.4130 h2         1 3K5       0.071700
     87 H32         28.8900   -42.3130    85.7140 hc         1 3K5       0.070700
     88 H33         29.0170   -45.3640    85.1970 hc         1 3K5       0.069200
     89 H34         30.2390   -44.5010    86.1160 hc         1 3K5       0.069200
     90 H35         30.5800   -44.9560    83.5200 hc         1 3K5       0.046200
     91 H36         31.1460   -43.4570    84.2210 hc         1 3K5       0.046200
     92 H37         26.6160   -42.5340    84.7930 hc         1 3K5       0.076700
     93 H38         26.6960   -44.2830    84.7930 hc         1 3K5       0.076700
     94 H39         27.2920   -42.5520    82.6310 h1         1 3K5       0.056700
     95 H40         29.6560   -42.1370    83.1240 hc         1 3K5       0.076700
     96 H41         30.9410   -44.4420    80.0680 h1         1 3K5       0.079200
     97 H42         31.6410   -43.3010    81.3390 h1         1 3K5       0.079200
     98 H43         28.2580   -44.3790    79.2550 hc         1 3K5       0.078700
     99 H44         26.7720   -44.0860    80.1310 hc         1 3K5       0.078700
    100 H45         26.6130   -46.1230    78.6800 h1         1 3K5       0.070700
    101 H46         23.2820   -46.2640    82.0920 ha         1 3K5       0.199000
    102 H47         25.9680   -47.4910    82.9570 ha         1 3K5       0.198000
    103 H48         22.4520   -46.5190    84.1190 ha         1 3K5       0.117500
    104 H49         21.5960   -47.0470    86.3750 ha         1 3K5       0.112500
    105 H50         22.9860   -48.3500    87.9750 ha         1 3K5       0.112000
    106 H51         25.2700   -49.1110    87.3030 ha         1 3K5       0.112500
    107 H52         26.1540   -48.5650    85.0570 ha         1 3K5       0.117500
    108 H11         23.8810   -41.4040    87.6460 h1         1 3K5       0.074700
    109 C38         20.0000   -40.4280    86.8730 c          1 3K5       0.605100
@<TRIPOS>BOND
     1     1     2 1   
     2     1     3 1   
     3     1    47 1   
     4     1    57 1   
     5     2    45 1   
     6     2    58 1   
     7     2    59 1   
     8     3    60 1   
     9     3    61 1   
    10     3    62 1   
    11     4    47 1   
    12     4    48 1   
    13     5    48 2   
    14     6   109 2   
    15     7    63 1   
    16     7    64 1   
    17     7    65 1   
    18     7   109 1   
    19     8     9 1   
    20     8   109 1   
    21     9    10 1   
    22     9    12 1   
    23     9    66 1   
    24    10    11 1   
    25    10    17 1   
    26    10   108 1   
    27    11    67 1   
    28    12    13 1   
    29    12    14 1   
    30    12    68 1   
    31    13    69 1   
    32    14    15 1   
    33    14    16 1   
    34    14    70 1   
    35    15    71 1   
    36    15    72 1   
    37    15    73 1   
    38    16    17 1   
    39    17    18 1   
    40    17    74 1   
    41    18    19 1   
    42    19    20 1   
    43    19    30 1   
    44    19    75 1   
    45    20    21 1   
    46    20    25 1   
    47    20    76 1   
    48    21    22 1   
    49    22    23 1   
    50    22    24 2   
    51    23    77 1   
    52    23    78 1   
    53    23    79 1   
    54    25    26 1   
    55    25    27 1   
    56    25    80 1   
    57    26    81 1   
    58    27    28 1   
    59    27    29 1   
    60    27    82 1   
    61    28    83 1   
    62    28    84 1   
    63    28    85 1   
    64    29    30 1   
    65    30    31 1   
    66    30    86 1   
    67    31    32 1   
    68    32    33 2   
    69    32    34 1   
    70    34    35 1   
    71    34    37 1   
    72    34    87 1   
    73    35    36 1   
    74    35    88 1   
    75    35    89 1   
    76    36    39 1   
    77    36    90 1   
    78    36    91 1   
    79    37    38 1   
    80    37    92 1   
    81    37    93 1   
    82    38    39 1   
    83    38    43 1   
    84    38    94 1   
    85    39    40 1   
    86    39    95 1   
    87    40    41 1   
    88    40    42 1   
    89    40    44 1   
    90    41    42 1   
    91    42    96 1   
    92    42    97 1   
    93    43    44 1   
    94    44    45 1   
    95    44    46 1   
    96    46    47 1   
    97    46    98 1   
    98    46    99 1   
    99    47   100 1   
   100    48    49 1   
   101    49    50 2   
   102    49   101 1   
   103    50    51 1   
   104    50   102 1   
   105    51    52 ar  
   106    51    56 ar  
   107    52    53 ar  
   108    52   103 1   
   109    53    54 ar  
   110    53   104 1   
   111    54    55 ar  
   112    54   105 1   
   113    55    56 ar  
   114    55   106 1   
   115    56   107 1   
@<TRIPOS>SUBSTRUCTURE
     1 3K5         1 TEMP              0 ****  ****    0 ROOT
