@<TRIPOS>MOLECULE
3K5
  109   115     1     0     0
SMALL
abcg2


@<TRIPOS>ATOM
      1 C1          27.9540   -47.2700    80.4590 c6         1 3K5      -0.091700
      2 C2          29.2350   -46.7630    81.1460 c6         1 3K5       0.168600
      3 C           27.4830   -48.6150    81.0070 c3         1 3K5      -0.076100
      4 O1          26.0480   -46.3960    81.6790 os         1 3K5      -0.432100
      5 O2          24.3000   -45.3430    80.7190 o          1 3K5      -0.500000
      6 O15         19.4490   -41.4730    85.7720 o          1 3K5      -0.510000
      7 C39         19.4380   -39.6120    87.3050 c3         1 3K5      -0.152100
      8 O14         21.3110   -40.9780    86.9310 os         1 3K5      -0.438100
      9 C34         21.9830   -42.1770    86.4660 c6         1 3K5       0.141300
     10 C33         22.9780   -42.5570    87.5470 c6         1 3K5       0.151300
     11 O16         22.2440   -42.9240    88.7010 oh         1 3K5      -0.725000
     12 C35         22.6640   -41.9310    85.1270 c6         1 3K5       0.123300
     13 O13         21.7250   -41.7270    84.0770 oh         1 3K5      -0.726000
     14 C36         23.5780   -43.1110    84.7680 c6         1 3K5       0.169300
     15 C37         24.3940   -42.8360    83.5240 c3         1 3K5      -0.087100
     16 O12         24.4950   -43.3480    85.8440 os         1 3K5      -0.476000
     17 C32         23.8480   -43.7100    87.0460 c6         1 3K5       0.360300
     18 O11         24.8180   -43.9480    88.0200 os         1 3K5      -0.445000
     19 C25         25.3920   -45.2510    88.0410 c6         1 3K5       0.142300
     20 C26         24.9070   -45.9940    89.2800 c6         1 3K5       0.144300
     21 O9          23.5020   -46.2550    89.1390 os         1 3K5      -0.452100
     22 C30         22.6410   -45.7050    90.0120 c          1 3K5       0.604100
     23 C31         21.2400   -46.1650    89.7480 c3         1 3K5      -0.149100
     24 O10         22.9690   -44.9330    90.8860 o          1 3K5      -0.484000
     25 C27         25.6300   -47.3160    89.4810 c6         1 3K5       0.132300
     26 O8          25.2190   -47.8350    90.7410 oh         1 3K5      -0.710000
     27 C28         27.1480   -47.0930    89.4420 c6         1 3K5       0.152300
     28 C29         27.9360   -48.3830    89.4690 c3         1 3K5      -0.088100
     29 O7          27.4900   -46.4090    88.2260 os         1 3K5      -0.469000
     30 C24         26.9090   -45.1330    88.1380 c6         1 3K5       0.383300
     31 O6          27.4040   -44.5390    86.9570 os         1 3K5      -0.415100
     32 C23         28.5350   -43.7970    87.0600 c          1 3K5       0.607100
     33 O5          29.1230   -43.6380    88.1030 o          1 3K5      -0.478000
     34 C20         28.9970   -43.2450    85.7370 c6         1 3K5      -0.110700
     35 C19         29.8670   -44.2940    85.0180 c6         1 3K5      -0.069400
     36 C18         30.5730   -43.6220    83.8410 c6         1 3K5      -0.054400
     37 C21         27.8680   -42.7270    84.8290 c6         1 3K5      -0.070400
     38 C22         28.1540   -42.8530    83.3400 c5         1 3K5       0.179300
     39 C17         29.6190   -42.8510    82.8940 c5         1 3K5      -0.073700
     40 C15         29.4600   -43.5150    81.5470 cx         1 3K5       0.045000
     41 O3          29.3070   -42.6350    80.4190 op         1 3K5      -0.442000
     42 C16         30.4560   -43.5050    80.4870 cx         1 3K5       0.105600
     43 O4          27.6360   -44.1220    82.8520 os         1 3K5      -0.442000
     44 C3          28.3790   -44.5890    81.7420 c5         1 3K5       0.420000
     45 O           28.9610   -45.8150    82.1810 os         1 3K5      -0.452000
     46 C4          27.4850   -44.8010    80.5180 c6         1 3K5      -0.119400
     47 C5          26.8640   -46.1870    80.4980 c6         1 3K5       0.189300
     48 C6          24.7820   -45.9620    81.6540 c          1 3K5       0.596300
     49 C7          24.0120   -46.3270    82.8480 ce         1 3K5      -0.267200
     50 C8          24.4910   -47.0920    83.8390 cf         1 3K5      -0.076200
     51 C9          23.7510   -47.5760    84.9980 ca         1 3K5      -0.076800
     52 C14         22.4520   -47.1490    85.3120 ca         1 3K5      -0.089000
     53 C13         21.7700   -47.7020    86.3830 ca         1 3K5      -0.117000
     54 C12         22.3680   -48.6900    87.1650 ca         1 3K5      -0.087000
     55 C11         23.6600   -49.1110    86.8760 ca         1 3K5      -0.117000
     56 C10         24.3480   -48.5520    85.8070 ca         1 3K5      -0.089000
     57 H1          28.1930   -47.4000    79.4000 hc         1 3K5       0.051700
     58 H2          29.7590   -47.5810    81.6390 h1         1 3K5       0.046700
     59 H3          29.9180   -46.3280    80.4130 h1         1 3K5       0.046700
     60 H4          28.2330   -49.3810    80.8050 hc         1 3K5       0.041033
     61 H5          27.3230   -48.5680    82.0840 hc         1 3K5       0.041033
     62 H6          26.5450   -48.9240    80.5400 hc         1 3K5       0.041033
     63 H7          18.4380   -39.4150    86.9300 hc         1 3K5       0.075367
     64 H8          19.3990   -39.8340    88.3730 hc         1 3K5       0.075367
     65 H9          20.0710   -38.7340    87.1730 hc         1 3K5       0.075367
     66 H10         21.2410   -42.9720    86.3680 h1         1 3K5       0.075700
     67 H12         22.8660   -43.1300    89.4120 ho         1 3K5       0.534000
     68 H13         23.2870   -41.0340    85.2170 h1         1 3K5       0.076700
     69 H14         20.8270   -41.8280    84.4330 ho         1 3K5       0.532000
     70 H15         22.9530   -44.0020    84.6260 h1         1 3K5       0.038700
     71 H16         25.0800   -43.6580    83.3290 hc         1 3K5       0.057367
     72 H17         23.7370   -42.7170    82.6640 hc         1 3K5       0.057367
     73 H18         24.9770   -41.9220    83.6500 hc         1 3K5       0.057367
     74 H19         23.2330   -44.6060    86.8840 h2         1 3K5       0.044700
     75 H20         25.1340   -45.8020    87.1330 h1         1 3K5       0.090700
     76 H21         25.0610   -45.3600    90.1540 h1         1 3K5       0.097700
     77 H22         20.5580   -45.6850    90.4430 hc         1 3K5       0.071033
     78 H23         20.9640   -45.9220    88.7220 hc         1 3K5       0.071033
     79 H24         21.1850   -47.2490    89.8550 hc         1 3K5       0.071033
     80 H25         25.3520   -48.0000    88.6750 h1         1 3K5       0.058700
     81 H26         25.2610   -48.7980    90.7100 ho         1 3K5       0.508000
     82 H27         27.4240   -46.4590    90.2950 h1         1 3K5       0.060700
     83 H28         27.7180   -48.9400    90.3810 hc         1 3K5       0.050033
     84 H29         27.6750   -49.0040    88.6090 hc         1 3K5       0.050033
     85 H30         29.0050   -48.1730    89.4430 hc         1 3K5       0.050033
     86 H31         27.1890   -44.5200    89.0000 h2         1 3K5       0.071700
     87 H32         29.6580   -42.4180    86.0030 hc         1 3K5       0.070700
     88 H33         29.2470   -45.1220    84.6760 hc         1 3K5       0.069200
     89 H34         30.6120   -44.6930    85.7070 hc         1 3K5       0.069200
     90 H35         31.1310   -44.3700    83.2770 hc         1 3K5       0.046200
     91 H36         31.3050   -42.9170    84.2400 hc         1 3K5       0.046200
     92 H37         27.6810   -41.6770    85.0580 hc         1 3K5       0.076700
     93 H38         26.9390   -43.2570    85.0310 hc         1 3K5       0.076700
     94 H39         27.6190   -42.0590    82.8110 h1         1 3K5       0.056700
     95 H40         29.9740   -41.8310    82.7520 hc         1 3K5       0.076700
     96 H41         30.4740   -44.2880    79.7390 h1         1 3K5       0.079200
     97 H42         31.4020   -43.0020    80.6640 h1         1 3K5       0.079200
     98 H43         28.0730   -44.6920    79.6050 hc         1 3K5       0.078700
     99 H44         26.7240   -44.0240    80.5050 hc         1 3K5       0.078700
    100 H45         26.2100   -46.2880    79.6350 h1         1 3K5       0.070700
    101 H46         22.9940   -45.9620    82.8400 ha         1 3K5       0.199000
    102 H47         25.5170   -47.4330    83.7690 ha         1 3K5       0.198000
    103 H48         21.9740   -46.3820    84.7180 ha         1 3K5       0.117500
    104 H49         20.7700   -47.3600    86.6170 ha         1 3K5       0.112500
    105 H50         21.8310   -49.1140    88.0030 ha         1 3K5       0.112000
    106 H51         24.1340   -49.8700    87.4850 ha         1 3K5       0.112500
    107 H52         25.3560   -48.8780    85.5820 ha         1 3K5       0.117500
    108 H11         23.6380   -41.7080    87.7530 h1         1 3K5       0.074700
    109 C38         20.0340   -40.7790    86.5810 c          1 3K5       0.605100
@<TRIPOS>BOND
     1     1     2 1   
     2     1     3 1   
     3     1    47 1   
     4     1    57 1   
     5     2    45 1   
     6     2    58 1   
     7     2    59 1   
     8     3    60 1   
     9     3    61 1   
    10     3    62 1   
    11     4    47 1   
    12     4    48 1   
    13     5    48 2   
    14     6   109 2   
    15     7    63 1   
    16     7    64 1   
    17     7    65 1   
    18     7   109 1   
    19     8     9 1   
    20     8   109 1   
    21     9    10 1   
    22     9    12 1   
    23     9    66 1   
    24    10    11 1   
    25    10    17 1   
    26    10   108 1   
    27    11    67 1   
    28    12    13 1   
    29    12    14 1   
    30    12    68 1   
    31    13    69 1   
    32    14    15 1   
    33    14    16 1   
    34    14    70 1   
    35    15    71 1   
    36    15    72 1   
    37    15    73 1   
    38    16    17 1   
    39    17    18 1   
    40    17    74 1   
    41    18    19 1   
    42    19    20 1   
    43    19    30 1   
    44    19    75 1   
    45    20    21 1   
    46    20    25 1   
    47    20    76 1   
    48    21    22 1   
    49    22    23 1   
    50    22    24 2   
    51    23    77 1   
    52    23    78 1   
    53    23    79 1   
    54    25    26 1   
    55    25    27 1   
    56    25    80 1   
    57    26    81 1   
    58    27    28 1   
    59    27    29 1   
    60    27    82 1   
    61    28    83 1   
    62    28    84 1   
    63    28    85 1   
    64    29    30 1   
    65    30    31 1   
    66    30    86 1   
    67    31    32 1   
    68    32    33 2   
    69    32    34 1   
    70    34    35 1   
    71    34    37 1   
    72    34    87 1   
    73    35    36 1   
    74    35    88 1   
    75    35    89 1   
    76    36    39 1   
    77    36    90 1   
    78    36    91 1   
    79    37    38 1   
    80    37    92 1   
    81    37    93 1   
    82    38    39 1   
    83    38    43 1   
    84    38    94 1   
    85    39    40 1   
    86    39    95 1   
    87    40    41 1   
    88    40    42 1   
    89    40    44 1   
    90    41    42 1   
    91    42    96 1   
    92    42    97 1   
    93    43    44 1   
    94    44    45 1   
    95    44    46 1   
    96    46    47 1   
    97    46    98 1   
    98    46    99 1   
    99    47   100 1   
   100    48    49 1   
   101    49    50 2   
   102    49   101 1   
   103    50    51 1   
   104    50   102 1   
   105    51    52 ar  
   106    51    56 ar  
   107    52    53 ar  
   108    52   103 1   
   109    53    54 ar  
   110    53   104 1   
   111    54    55 ar  
   112    54   105 1   
   113    55    56 ar  
   114    55   106 1   
   115    56   107 1   
@<TRIPOS>SUBSTRUCTURE
     1 3K5         1 TEMP              0 ****  ****    0 ROOT
