@<TRIPOS>MOLECULE
3K6
   55    59     1     0     0
SMALL
abcg2


@<TRIPOS>ATOM
      1 C1           3.5250    -1.3780    -0.8950 c6         1 3K6       0.199500
      2 C2           3.1690    -2.7120    -0.2590 c6         1 3K6       0.082600
      3 C3          -0.1870    -3.5380     0.1930 cc         1 3K6       0.263900
      4 O1          -5.5060     1.8030     1.5630 o          1 3K6      -0.544000
      5 C11         -6.3260     0.9940    -2.0680 c3         1 3K6       0.224600
      6 C12         -5.2410     2.9790    -1.0410 c3         1 3K6       0.224600
      7 C13          0.9590    -1.6630     0.0890 cd         1 3K6      -0.116300
      8 C14          1.5230    -0.2840    -0.0040 c6         1 3K6       0.267100
      9 C15          3.6400     0.8840     0.0610 ca         1 3K6       0.384000
     10 C16          2.9860     2.1160    -0.0170 ca         1 3K6      -0.272000
     11 C17          3.6930     3.3120     0.1170 ca         1 3K6       0.386900
     12 C18          5.6060     2.2280     0.4230 ca         1 3K6       0.385500
     13 C19          7.2110     0.7330     0.7940 cc         1 3K6      -0.161100
     14 C20          6.0780     0.0050     0.5710 cd         1 3K6      -0.232200
     15 C21          5.0270     0.9440     0.3150 ca         1 3K6      -0.169800
     16 O           -6.6460    -0.1900     0.5280 o          1 3K6      -0.544000
     17 N2          -5.6750     1.6000    -0.9210 n3         1 3K6      -0.806500
     18 C8          -4.0470    -0.0640     0.4730 ca         1 3K6      -0.295500
     19 C7          -3.9950    -1.3500    -0.0500 ca         1 3K6      -0.008500
     20 C6          -2.7800    -2.0050    -0.1260 ca         1 3K6      -0.137500
     21 C9          -2.8920     0.5530     0.9340 ca         1 3K6      -0.008500
     22 C10         -1.6830    -0.1170     0.8610 ca         1 3K6      -0.137500
     23 C5          -1.5990    -1.4040     0.3230 ca         1 3K6       0.077000
     24 C4          -0.3400    -2.1360     0.2270 cc         1 3K6      -0.179000
     25 N1           1.0710    -3.8910     0.0410 nd         1 3K6      -0.516800
     26 N            1.7430    -2.7440    -0.0290 na         1 3K6       0.147800
     27 N3           2.9700    -0.3190    -0.0530 nh         1 3K6      -0.804400
     28 C            3.0810    -1.2690    -2.3520 c3         1 3K6      -0.123100
     29 N5           6.9280     2.0640     0.6970 na         1 3K6      -0.321400
     30 N4           4.9950     3.4030     0.3260 nb         1 3K6      -0.699000
     31 H1           4.6080    -1.2990    -0.8760 h1         1 3K6       0.086700
     32 H2           3.4320    -3.5410    -0.9140 h1         1 3K6       0.077700
     33 H3           3.7010    -2.8390     0.6860 h1         1 3K6       0.077700
     34 H4          -0.9550    -4.2910     0.2890 h4         1 3K6       0.043100
     35 H5          -7.3570     1.3380    -2.1770 h1         1 3K6       0.042867
     36 H6          -5.7740     1.2640    -2.9670 h1         1 3K6       0.042867
     37 H7          -6.3320    -0.0910    -2.0000 h1         1 3K6       0.042867
     38 H8          -6.0830     3.6730    -0.9910 h1         1 3K6       0.042867
     39 H9          -4.5300     3.2450    -0.2650 h1         1 3K6       0.042867
     40 H10         -4.7440     3.1070    -2.0020 h1         1 3K6       0.042867
     41 H11          1.0710     0.2250    -0.8680 h1         1 3K6       0.064200
     42 H12          1.2310     0.2850     0.8800 h1         1 3K6       0.064200
     43 H13          1.9250     2.1830    -0.2060 ha         1 3K6       0.119000
     44 H14          3.1500     4.2470     0.0340 h4         1 3K6       0.018100
     45 H15          8.2080     0.3960     1.0250 h4         1 3K6       0.217000
     46 H16          6.0220    -1.0700     0.6180 ha         1 3K6       0.202000
     47 H17         -4.8900    -1.8470    -0.3990 ha         1 3K6       0.132000
     48 H18         -2.7510    -2.9980    -0.5550 ha         1 3K6       0.115500
     49 H19         -2.9240     1.5440     1.3670 ha         1 3K6       0.132000
     50 H20         -0.8050     0.3720     1.2590 ha         1 3K6       0.115500
     51 H21          2.0100    -1.4270    -2.4850 hc         1 3K6       0.049700
     52 H22          3.3300    -0.2860    -2.7520 hc         1 3K6       0.049700
     53 H23          3.6010    -2.0150    -2.9530 hc         1 3K6       0.049700
     54 H24          7.5840     2.8140     0.8410 hn         1 3K6       0.362000
     55 S           -5.5880     0.8090     0.5030 sy         1 3K6       1.201600
@<TRIPOS>BOND
     1     1     2 1   
     2     1    27 1   
     3     1    28 1   
     4     1    31 1   
     5     2    26 1   
     6     2    32 1   
     7     2    33 1   
     8     3    24 1   
     9     3    25 2   
    10     3    34 1   
    11     4    55 2   
    12     5    17 1   
    13     5    35 1   
    14     5    36 1   
    15     5    37 1   
    16     6    17 1   
    17     6    38 1   
    18     6    39 1   
    19     6    40 1   
    20     7     8 1   
    21     7    24 2   
    22     7    26 1   
    23     8    27 1   
    24     8    41 1   
    25     8    42 1   
    26     9    10 ar  
    27     9    15 ar  
    28     9    27 1   
    29    10    11 ar  
    30    10    43 1   
    31    11    30 ar  
    32    11    44 1   
    33    12    15 ar  
    34    12    29 1   
    35    12    30 ar  
    36    13    14 2   
    37    13    29 1   
    38    13    45 1   
    39    14    15 1   
    40    14    46 1   
    41    16    55 2   
    42    17    55 1   
    43    18    19 ar  
    44    18    21 ar  
    45    18    55 1   
    46    19    20 ar  
    47    19    47 1   
    48    20    23 ar  
    49    20    48 1   
    50    21    22 ar  
    51    21    49 1   
    52    22    23 ar  
    53    22    50 1   
    54    23    24 1   
    55    25    26 1   
    56    28    51 1   
    57    28    52 1   
    58    28    53 1   
    59    29    54 1   
@<TRIPOS>SUBSTRUCTURE
     1 3K6         1 TEMP              0 ****  ****    0 ROOT
