@<TRIPOS>MOLECULE
3K7
   37    39     1     0     0
SMALL
No Charge or Current Charge


@<TRIPOS>ATOM
      1 C1          -2.0130    -0.8720    -0.4360 ca         1 3K7      -0.153000
      2 C2          -0.9420    -0.2710     0.2550 ca         1 3K7      -0.022800
      3 C3          -1.1600     0.9380     0.9410 ca         1 3K7      -0.068000
      4 C4          -2.4300     1.5390     0.9490 ca         1 3K7      -0.177000
      5 C5          -3.5070     0.9350     0.2640 ca         1 3K7       0.121100
      6 C6          -3.2960    -0.2780    -0.4340 ca         1 3K7       0.105100
      7 O1          -4.7730     1.4980     0.2510 os         1 3K7      -0.320100
      8 O2          -4.3660    -0.8510    -1.1050 os         1 3K7      -0.322100
      9 C7           0.3870    -0.8910     0.2530 cc         1 3K7      -0.052300
     10 C8           0.6460    -2.2200     0.5320 cd         1 3K7       0.054400
     11 N9           2.0170    -2.4600     0.5200 nd         1 3K7      -0.281600
     12 C10          2.5870    -1.2870     0.2610 cc         1 3K7      -0.175000
     13 N11          1.6270    -0.3260     0.1230 na         1 3K7       0.273900
     14 C12          3.9540    -0.9270     0.1240 cc         1 3K7       0.446000
     15 C13          4.2370     0.3720    -0.1560 cd         1 3K7      -0.327000
     16 C14          3.1400     1.2870    -0.3000 cd         1 3K7       0.466000
     17 N18          1.8400     1.0010    -0.1850 nc         1 3K7      -0.509800
     18 C9          -0.3270    -3.3260     0.8560 c3         1 3K7      -0.016900
     19 Cl           3.5470     2.9310    -0.6670 cl         1 3K7      -0.148000
     20 N12          4.8980    -1.8860     0.2740 nv         1 3K7      -1.089000
     21 C11         -4.2520    -2.0880    -1.8310 c3         1 3K7       0.145900
     22 C15         -5.0780     2.7280     0.9320 c3         1 3K7       0.145900
     23 H1          -1.8290    -1.7910    -0.9820 ha         1 3K7       0.122000
     24 H2          -0.3430     1.4120     1.4800 ha         1 3K7       0.127000
     25 H3          -2.5570     2.4700     1.4940 ha         1 3K7       0.121000
     26 H4           5.2580     0.7110    -0.2710 ha         1 3K7       0.143000
     27 H5          -0.7130    -3.7890    -0.0600 hc         1 3K7       0.047700
     28 H6           0.1510    -4.1140     1.4510 hc         1 3K7       0.047700
     29 H7          -1.1790    -2.9500     1.4330 hc         1 3K7       0.047700
     30 H8           4.5730    -2.8500     0.2720 hn         1 3K7       0.506000
     31 H9           5.8250    -1.7210    -0.1120 hn         1 3K7       0.506000
     32 H10         -3.5180    -1.9970    -2.6430 h1         1 3K7       0.039033
     33 H11         -3.9440    -2.9040    -1.1660 h1         1 3K7       0.039033
     34 H12         -5.2180    -2.3570    -2.2760 h1         1 3K7       0.039033
     35 H13         -4.8920     2.6350     2.0090 h1         1 3K7       0.040033
     36 H14         -4.4690     3.5530     0.5380 h1         1 3K7       0.040033
     37 H15         -6.1340     2.9880     0.7900 h1         1 3K7       0.040033
@<TRIPOS>BOND
     1     1     2 ar  
     2     1     6 ar  
     3     1    23 1   
     4     2     3 ar  
     5     2     9 1   
     6     3     4 ar  
     7     3    24 1   
     8     4     5 ar  
     9     4    25 1   
    10     5     6 ar  
    11     5     7 1   
    12     6     8 1   
    13     7    22 1   
    14     8    21 1   
    15     9    10 2   
    16     9    13 1   
    17    10    11 1   
    18    10    18 1   
    19    11    12 2   
    20    12    13 1   
    21    12    14 1   
    22    13    17 1   
    23    14    15 2   
    24    14    20 1   
    25    15    16 1   
    26    15    26 1   
    27    16    17 2   
    28    16    19 1   
    29    18    27 1   
    30    18    28 1   
    31    18    29 1   
    32    20    30 1   
    33    20    31 1   
    34    21    32 1   
    35    21    33 1   
    36    21    34 1   
    37    22    35 1   
    38    22    36 1   
    39    22    37 1   
@<TRIPOS>SUBSTRUCTURE
     1 3K7         1 TEMP              0 ****  ****    0 ROOT
