@<TRIPOS>MOLECULE
3K7
   37    39     1     0     0
SMALL
bcc


@<TRIPOS>ATOM
      1 C1          -2.0160    -0.8610    -0.3840 ca         1 3K7      -0.171000
      2 C2          -0.9380    -0.2660     0.2870 ca         1 3K7      -0.022800
      3 C3          -1.1400     0.9460     0.9300 ca         1 3K7      -0.086000
      4 C4          -2.3920     1.5540     0.9130 ca         1 3K7      -0.195000
      5 C5          -3.4610     0.9610     0.2620 ca         1 3K7       0.121100
      6 C6          -3.2670    -0.2710    -0.3970 ca         1 3K7       0.105100
      7 O1          -4.7050     1.4680     0.1960 os         1 3K7      -0.296900
      8 O2          -4.3510    -0.7800    -1.0110 os         1 3K7      -0.298900
      9 C7           0.3460    -0.9580     0.3100 cc         1 3K7      -0.052300
     10 C8           0.6580    -2.2950     0.5050 cd         1 3K7       0.054400
     11 N9           1.9960    -2.4930     0.4490 nd         1 3K7      -0.281600
     12 C10          2.5220    -1.3080     0.2240 cc         1 3K7      -0.124300
     13 N11          1.5580    -0.3430     0.1350 na         1 3K7       0.223200
     14 C12          3.8850    -0.9270     0.0780 cc         1 3K7       0.307600
     15 C13          4.1150     0.4190    -0.1570 cd         1 3K7      -0.410300
     16 C14          3.0070     1.2720    -0.2350 cd         1 3K7       0.531300
     17 N18          1.7570     0.9580    -0.1050 nc         1 3K7      -0.509800
     18 C9          -0.2820    -3.4200     0.7650 c3         1 3K7      -0.016900
     19 CL           3.3030     2.9480    -0.5430 cl         1 3K7      -0.148000
     20 N12          4.8320    -1.8600     0.1870 nv         1 3K7      -0.840200
     21 C11         -4.2140    -2.0070    -1.6990 c3         1 3K7       0.122700
     22 C15         -4.9560     2.7030     0.8350 c3         1 3K7       0.122700
     23 H1          -1.8470    -1.7890    -0.9120 ha         1 3K7       0.140000
     24 H2          -0.3330     1.4300     1.4630 ha         1 3K7       0.145000
     25 H3          -2.5160     2.4970     1.4280 ha         1 3K7       0.139000
     26 H4           5.1160     0.8050    -0.2820 ha         1 3K7       0.161000
     27 H5          -0.6070    -3.9000    -0.1610 hc         1 3K7       0.047700
     28 H6           0.2040    -4.1830     1.3720 hc         1 3K7       0.047700
     29 H7          -1.1760    -3.0850     1.2900 hc         1 3K7       0.047700
     30 H8           4.5820    -2.8290     0.2750 hn         1 3K7       0.450800
     31 H9           5.8000    -1.6390     0.0320 hn         1 3K7       0.450800
     32 H10         -3.4850    -1.9420    -2.5110 h1         1 3K7       0.039033
     33 H11         -3.9250    -2.8230    -1.0300 h1         1 3K7       0.039033
     34 H12         -5.1890    -2.2320    -2.1230 h1         1 3K7       0.039033
     35 H13         -4.7830     2.6500     1.9130 h1         1 3K7       0.040033
     36 H14         -4.3450     3.5100     0.4200 h1         1 3K7       0.040033
     37 H15         -6.0040     2.9320     0.6600 h1         1 3K7       0.040033
@<TRIPOS>BOND
     1     1     2 ar  
     2     1     6 ar  
     3     1    23 1   
     4     2     3 ar  
     5     2     9 1   
     6     3     4 ar  
     7     3    24 1   
     8     4     5 ar  
     9     4    25 1   
    10     5     6 ar  
    11     5     7 1   
    12     6     8 1   
    13     7    22 1   
    14     8    21 1   
    15     9    10 2   
    16     9    13 1   
    17    10    11 1   
    18    10    18 1   
    19    11    12 2   
    20    12    13 1   
    21    12    14 1   
    22    13    17 1   
    23    14    15 2   
    24    14    20 1   
    25    15    16 1   
    26    15    26 1   
    27    16    17 2   
    28    16    19 1   
    29    18    27 1   
    30    18    28 1   
    31    18    29 1   
    32    20    30 1   
    33    20    31 1   
    34    21    32 1   
    35    21    33 1   
    36    21    34 1   
    37    22    35 1   
    38    22    36 1   
    39    22    37 1   
@<TRIPOS>SUBSTRUCTURE
     1 3K7         1 TEMP              0 ****  ****    0 ROOT
