@<TRIPOS>MOLECULE
3K9
   49    53     1     0     0
SMALL
No Charge or Current Charge


@<TRIPOS>ATOM
      1 C12         -6.1160    -0.8590    -2.0600 ca         1 3K9      -0.108000
      2 C11         -6.5560    -0.5100    -0.7720 ca         1 3K9      -0.102500
      3 C13         -4.9050    -0.3430    -2.5520 ca         1 3K9      -0.102500
      4 C10         -5.7810     0.3480     0.0290 ca         1 3K9      -0.097500
      5 C14         -4.1290     0.5160    -1.7540 ca         1 3K9      -0.097500
      6 C26          3.8860    -0.0630    -1.2870 ca         1 3K9      -0.152000
      7 C27          2.5200    -0.3710    -1.1480 ca         1 3K9      -0.066000
      8 C23          8.0610     0.2560    -0.7730 cc         1 3K9      -0.216000
      9 C5          -1.9110     2.7480     0.7080 cc         1 3K9      -0.192000
     10 C19          4.0170     0.4380     1.0890 ca         1 3K9      -0.149000
     11 C24          7.8870     1.5280    -0.1920 cc         1 3K9       0.257900
     12 C6          -3.0020     3.6310     0.7460 cc         1 3K9       0.234900
     13 C22          6.8320    -0.3310    -0.8370 cd         1 3K9      -0.156000
     14 C9          -4.5530     0.8520    -0.4490 ca         1 3K9       0.021800
     15 C20          4.6440     0.3400    -0.1680 ca         1 3K9       0.069800
     16 C17          1.8910    -0.2780     0.1080 ca         1 3K9       0.213000
     17 C18          2.6530     0.1310     1.2280 ca         1 3K9       0.218000
     18 C4          -2.4220     1.5010     0.4660 cd         1 3K9      -0.158900
     19 C29          0.1580    -1.9440     0.1440 cc         1 3K9      -0.108000
     20 C3          -1.6290     0.2710     0.4150 cd         1 3K9       0.314900
     21 C30         -1.1900    -2.1870     0.3150 cd         1 3K9      -0.023100
     22 C2          -2.1870    -1.1160     0.5000 c          1 3K9       0.475000
     23 C32         -0.7650    -4.6190     0.1660 c3         1 3K9       0.137900
     24 N25          6.6360     1.8070     0.1260 nd         1 3K9      -0.514800
     25 N7          -4.1640     3.0640     0.4900 nd         1 3K9      -0.503800
     26 N15         -0.3110     0.5100     0.3250 nc         1 3K9      -0.340400
     27 N21          6.0010     0.6520    -0.2990 na         1 3K9       0.214000
     28 N8          -3.8080     1.7300     0.3440 na         1 3K9       0.245000
     29 N16          0.5300    -0.5910     0.2230 na         1 3K9      -0.304300
     30 O1          -3.3620    -1.3840     0.7400 o          1 3K9      -0.498100
     31 O31         -1.6480    -3.4920     0.3270 os         1 3K9      -0.292100
     32 F28          2.0840     0.2240     2.4540 f          1 3K9      -0.148000
     33 H1          -6.7170    -1.5220    -2.6780 ha         1 3K9       0.114000
     34 H2          -7.4980    -0.9020    -0.3940 ha         1 3K9       0.115000
     35 H3          -4.5710    -0.6040    -3.5540 ha         1 3K9       0.115000
     36 H4          -6.1280     0.6180     1.0240 ha         1 3K9       0.130000
     37 H5          -3.2020     0.9220    -2.1510 ha         1 3K9       0.130000
     38 H7           1.9430    -0.6790    -2.0160 ha         1 3K9       0.133000
     39 H8           9.0100    -0.1600    -1.0930 ha         1 3K9       0.152000
     40 H9          -0.8780     3.0330     0.8820 ha         1 3K9       0.151000
     41 H10          4.5860     0.7500     1.9600 ha         1 3K9       0.172000
     42 H11          8.6540     2.2630     0.0150 h4         1 3K9       0.045100
     43 H12         -2.9710     4.6970     0.9280 h4         1 3K9       0.038100
     44 H13          6.4960    -1.2990    -1.1940 h4         1 3K9       0.158000
     45 H14          0.9430    -2.6820     0.0030 h4         1 3K9       0.214000
     46 H15         -1.3340    -5.5550     0.2070 h1         1 3K9       0.043700
     47 H16         -0.2520    -4.5780    -0.8040 h1         1 3K9       0.043700
     48 H17         -0.0130    -4.6440     0.9650 h1         1 3K9       0.043700
     49 H6           4.3540    -0.1330    -2.2670 ha         1 3K9       0.130000
@<TRIPOS>BOND
     1     1     2 ar  
     2     1     3 ar  
     3     1    33 1   
     4     2     4 ar  
     5     2    34 1   
     6     3     5 ar  
     7     3    35 1   
     8     4    14 ar  
     9     4    36 1   
    10     5    14 ar  
    11     5    37 1   
    12     6     7 ar  
    13     6    15 ar  
    14     6    49 1   
    15     7    16 ar  
    16     7    38 1   
    17     8    11 1   
    18     8    13 2   
    19     8    39 1   
    20     9    12 1   
    21     9    18 2   
    22     9    40 1   
    23    10    15 ar  
    24    10    17 ar  
    25    10    41 1   
    26    11    24 2   
    27    11    42 1   
    28    12    25 2   
    29    12    43 1   
    30    13    27 1   
    31    13    44 1   
    32    14    28 1   
    33    15    27 1   
    34    16    17 ar  
    35    16    29 1   
    36    17    32 1   
    37    18    20 1   
    38    18    28 1   
    39    19    21 2   
    40    19    29 1   
    41    19    45 1   
    42    20    22 1   
    43    20    26 2   
    44    21    22 1   
    45    21    31 1   
    46    22    30 2   
    47    23    31 1   
    48    23    46 1   
    49    23    47 1   
    50    23    48 1   
    51    24    27 1   
    52    25    28 1   
    53    26    29 1   
@<TRIPOS>SUBSTRUCTURE
     1 3K9         1 TEMP              0 ****  ****    0 ROOT
