@<TRIPOS>MOLECULE
3K9
   49    53     1     0     0
SMALL
abcg2


@<TRIPOS>ATOM
      1 C12         -5.4050    -0.6230    -2.7510 ca         1 3K9      -0.108000
      2 C11         -6.1680    -0.1420    -1.6940 ca         1 3K9      -0.102500
      3 C13         -4.0470    -0.3410    -2.8040 ca         1 3K9      -0.102500
      4 C10         -5.5780     0.6030    -0.6850 ca         1 3K9      -0.097500
      5 C14         -3.4500     0.4210    -1.8090 ca         1 3K9      -0.097500
      6 C26          3.7460    -0.6100    -1.2940 ca         1 3K9      -0.152000
      7 C27          2.4130    -0.8700    -1.0350 ca         1 3K9      -0.066000
      8 C23          7.8420     0.5860    -1.5080 cc         1 3K9      -0.216000
      9 C5          -2.2450     2.4670     1.7680 cc         1 3K9      -0.192000
     10 C19          3.8570     0.7560     0.6920 ca         1 3K9      -0.149000
     11 C24          7.7230     1.3300    -0.3170 cc         1 3K9       0.257900
     12 C6          -3.3710     3.2820     1.5820 cc         1 3K9       0.234900
     13 C22          6.5960     0.0590    -1.7050 cd         1 3K9      -0.156000
     14 C9          -4.2180     0.8750    -0.7460 ca         1 3K9       0.021800
     15 C20          4.4700     0.2080    -0.4310 ca         1 3K9       0.069800
     16 C17          1.7900    -0.3370     0.0820 ca         1 3K9       0.213000
     17 C18          2.5320     0.4680     0.9330 ca         1 3K9       0.218000
     18 C4          -2.4400     1.4070     0.9120 cd         1 3K9      -0.158900
     19 C29          0.0190    -1.9130     0.5180 cc         1 3K9      -0.108000
     20 C3          -1.6250     0.2040     0.7330 cd         1 3K9       0.314900
     21 C30         -1.2850    -2.1920     0.7890 cd         1 3K9      -0.023100
     22 C2          -2.2260    -1.1040     0.9550 c          1 3K9       0.475000
     23 C32         -0.9130    -4.5180     0.8480 c3         1 3K9       0.137900
     24 N25          6.5070     1.2640     0.1730 nd         1 3K9      -0.514800
     25 N7          -4.1890     2.7740     0.6810 nd         1 3K9      -0.503800
     26 N15         -0.3690     0.4090     0.4630 nc         1 3K9      -0.340400
     27 N21          5.8220     0.4880    -0.6740 na         1 3K9       0.214000
     28 N8          -3.6180     1.6400     0.2790 na         1 3K9       0.245000
     29 N16          0.4310    -0.6230     0.3670 na         1 3K9      -0.304300
     30 O1          -3.4000    -1.2620     1.2640 o          1 3K9      -0.498100
     31 O31         -1.7910    -3.4110     0.9630 os         1 3K9      -0.292100
     32 F28          1.9530     0.9680     2.0230 f          1 3K9      -0.148000
     33 H1          -5.8690    -1.2090    -3.5330 ha         1 3K9       0.114000
     34 H2          -7.2280    -0.3560    -1.6480 ha         1 3K9       0.115000
     35 H3          -3.4490    -0.6980    -3.6320 ha         1 3K9       0.115000
     36 H4          -6.1660     0.9650     0.1470 ha         1 3K9       0.130000
     37 H5          -2.4000     0.6730    -1.8790 ha         1 3K9       0.130000
     38 H7           1.8490    -1.4920    -1.7180 ha         1 3K9       0.133000
     39 H8           8.7110     0.4550    -2.1290 ha         1 3K9       0.152000
     40 H9          -1.4190     2.6070     2.4460 ha         1 3K9       0.151000
     41 H10          4.4030     1.3860     1.3780 ha         1 3K9       0.172000
     42 H11          8.4810     1.9070     0.1900 h4         1 3K9       0.045100
     43 H12         -3.6100     4.2150     2.0680 h4         1 3K9       0.038100
     44 H13          6.2220    -0.5720    -2.4930 h4         1 3K9       0.158000
     45 H14          0.7920    -2.6610     0.4260 h4         1 3K9       0.214000
     46 H15         -1.5110    -5.4070     1.0250 h1         1 3K9       0.043700
     47 H16         -0.4720    -4.5780    -0.1500 h1         1 3K9       0.043700
     48 H17         -0.1120    -4.4730     1.5900 h1         1 3K9       0.043700
     49 H6           4.1950    -1.0430    -2.1740 ha         1 3K9       0.130000
@<TRIPOS>BOND
     1     1     2 ar  
     2     1     3 ar  
     3     1    33 1   
     4     2     4 ar  
     5     2    34 1   
     6     3     5 ar  
     7     3    35 1   
     8     4    14 ar  
     9     4    36 1   
    10     5    14 ar  
    11     5    37 1   
    12     6     7 ar  
    13     6    15 ar  
    14     6    49 1   
    15     7    16 ar  
    16     7    38 1   
    17     8    11 1   
    18     8    13 2   
    19     8    39 1   
    20     9    12 1   
    21     9    18 2   
    22     9    40 1   
    23    10    15 ar  
    24    10    17 ar  
    25    10    41 1   
    26    11    24 2   
    27    11    42 1   
    28    12    25 2   
    29    12    43 1   
    30    13    27 1   
    31    13    44 1   
    32    14    28 1   
    33    15    27 1   
    34    16    17 ar  
    35    16    29 1   
    36    17    32 1   
    37    18    20 1   
    38    18    28 1   
    39    19    21 2   
    40    19    29 1   
    41    19    45 1   
    42    20    22 1   
    43    20    26 2   
    44    21    22 1   
    45    21    31 1   
    46    22    30 2   
    47    23    31 1   
    48    23    46 1   
    49    23    47 1   
    50    23    48 1   
    51    24    27 1   
    52    25    28 1   
    53    26    29 1   
@<TRIPOS>SUBSTRUCTURE
     1 3K9         1 TEMP              0 ****  ****    0 ROOT
