@<TRIPOS>MOLECULE
3KB
   45    48     1     0     0
SMALL
No Charge or Current Charge


@<TRIPOS>ATOM
      1 C26          1.2370     3.7850    -0.2560 ca         1 3KB      -0.115000
      2 C25          1.3660     3.2690     1.0450 ca         1 3KB      -0.109000
      3 C27          1.9760     3.2240    -1.3110 ca         1 3KB      -0.109000
      4 C14         -1.9070     2.2700    -1.6360 ca         1 3KB      -0.103000
      5 C13         -3.0300     2.3270    -0.7930 ca         1 3KB      -0.061000
      6 C24          2.2310     2.1880     1.2910 ca         1 3KB      -0.099500
      7 C28          2.8380     2.1400    -1.0680 ca         1 3KB      -0.099500
      8 C15         -0.9800     1.2220    -1.5050 ca         1 3KB      -0.068000
      9 C19          4.4680    -1.5390     0.5990 cc         1 3KB      -0.174000
     10 C7          -2.2970     0.2870     0.3120 ca         1 3KB      -0.084000
     11 C20          5.5140    -0.6280     0.8380 cc         1 3KB       0.233900
     12 C8          -3.2330     1.3400     0.1960 ca         1 3KB      -0.182300
     13 C23          2.9620     1.6100     0.2330 ca         1 3KB       0.025800
     14 C6          -1.1710     0.2230    -0.5330 ca         1 3KB       0.282000
     15 C18          3.3390    -0.8020     0.3540 cd         1 3KB      -0.162900
     16 C4          -0.6910    -2.1420    -0.5180 cc         1 3KB      -0.115000
     17 C17          1.9970    -1.3270     0.0580 cd         1 3KB       0.322900
     18 C3           0.2820    -3.1060    -0.3410 cd         1 3KB      -0.021100
     19 C29          1.6930    -2.7910    -0.0420 c          1 3KB       0.477000
     20 C1          -1.4080    -4.8700    -0.7320 c3         1 3KB       0.136900
     21 N21          5.1610     0.6400     0.7640 nd         1 3KB      -0.503800
     22 N16          1.0520    -0.3950    -0.1120 nc         1 3KB      -0.368400
     23 N22          3.8130     0.5280     0.4730 na         1 3KB       0.228000
     24 N5          -0.2390    -0.8170    -0.3960 na         1 3KB      -0.295300
     25 O30          2.5210    -3.6910     0.1040 o          1 3KB      -0.500100
     26 O2          -0.0620    -4.4430    -0.4450 os         1 3KB      -0.292100
     27 F10         -4.1950     0.8980     2.3480 f          1 3KB      -0.110667
     28 F11         -4.9150     2.6530     1.2990 f          1 3KB      -0.110667
     29 F12         -5.4830     0.6710     0.6110 f          1 3KB      -0.110667
     30 H1           0.5670     4.6210    -0.4450 ha         1 3KB       0.116000
     31 H2           0.7950     3.7050     1.8620 ha         1 3KB       0.119000
     32 H3           1.8790     3.6260    -2.3180 ha         1 3KB       0.119000
     33 H4          -1.7540     3.0370    -2.3920 ha         1 3KB       0.130000
     34 H5          -3.7400     3.1440    -0.9150 ha         1 3KB       0.138000
     35 H6           2.3260     1.7880     2.2980 ha         1 3KB       0.133000
     36 H7           3.4050     1.7040    -1.8880 ha         1 3KB       0.133000
     37 H8          -0.1120     1.1800    -2.1550 ha         1 3KB       0.151000
     38 H9           4.6000    -2.6140     0.6230 ha         1 3KB       0.160000
     39 H10         -2.4330    -0.4860     1.0640 ha         1 3KB       0.136000
     40 H11          6.5440    -0.8670     1.0650 h4         1 3KB       0.041100
     41 H12         -1.7410    -2.3060    -0.7440 h4         1 3KB       0.218000
     42 H13         -2.1030    -4.5270     0.0450 h1         1 3KB       0.045367
     43 H14         -1.7430    -4.4850    -1.7040 h1         1 3KB       0.045367
     44 H15         -1.4570    -5.9660    -0.7690 h1         1 3KB       0.045367
     45 C9          -4.4580     1.3930     1.1170 c3         1 3KB       0.358300
@<TRIPOS>BOND
     1     1     2 ar  
     2     1     3 ar  
     3     1    30 1   
     4     2     6 ar  
     5     2    31 1   
     6     3     7 ar  
     7     3    32 1   
     8     4     5 ar  
     9     4     8 ar  
    10     4    33 1   
    11     5    12 ar  
    12     5    34 1   
    13     6    13 ar  
    14     6    35 1   
    15     7    13 ar  
    16     7    36 1   
    17     8    14 ar  
    18     8    37 1   
    19     9    11 1   
    20     9    15 2   
    21     9    38 1   
    22    10    12 ar  
    23    10    14 ar  
    24    10    39 1   
    25    11    21 2   
    26    11    40 1   
    27    12    45 1   
    28    13    23 1   
    29    14    24 1   
    30    15    17 1   
    31    15    23 1   
    32    16    18 2   
    33    16    24 1   
    34    16    41 1   
    35    17    19 1   
    36    17    22 2   
    37    18    19 1   
    38    18    26 1   
    39    19    25 2   
    40    20    26 1   
    41    20    42 1   
    42    20    43 1   
    43    20    44 1   
    44    21    23 1   
    45    22    24 1   
    46    27    45 1   
    47    28    45 1   
    48    29    45 1   
@<TRIPOS>SUBSTRUCTURE
     1 3KB         1 TEMP              0 ****  ****    0 ROOT
