@<TRIPOS>MOLECULE
3KB
   45    48     1     0     0
SMALL
bcc


@<TRIPOS>ATOM
      1 C26          1.9010     3.6030    -1.7180 ca         1 3KB      -0.133000
      2 C25          2.2580     3.8250    -0.3940 ca         1 3KB      -0.127000
      3 C27          2.1120     2.3560    -2.2910 ca         1 3KB      -0.127000
      4 C14         -1.9120     2.6230     0.1240 ca         1 3KB      -0.121000
      5 C13         -3.2240     2.2960     0.4440 ca         1 3KB      -0.079000
      6 C24          2.8150     2.8020     0.3610 ca         1 3KB      -0.117500
      7 C28          2.6800     1.3320    -1.5470 ca         1 3KB      -0.117500
      8 C15         -0.9520     1.6400    -0.0190 ca         1 3KB      -0.086000
      9 C19          4.1590    -1.3930     1.4510 cc         1 3KB      -0.257300
     10 C7          -2.6070    -0.0350     0.5020 ca         1 3KB      -0.102000
     11 C20          5.1320    -0.4090     1.6710 cc         1 3KB       0.299200
     12 C8          -3.5640     0.9660     0.6290 ca         1 3KB      -0.182300
     13 C23          3.0200     1.5590    -0.2200 ca         1 3KB       0.025800
     14 C6          -1.3080     0.3090     0.1700 ca         1 3KB       0.143600
     15 C18          3.1750    -0.7540     0.7280 cd         1 3KB      -0.112200
     16 C4          -0.6170    -1.9240    -0.4930 cc         1 3KB      -0.065000
     17 C17          1.8590    -1.2240     0.3040 cd         1 3KB       0.322900
     18 C3           0.3440    -2.8810    -0.5940 cd         1 3KB      -0.021100
     19 C29          1.7020    -2.5900    -0.1760 c          1 3KB       0.477000
     20 C1          -1.1470    -4.4690    -1.4930 c3         1 3KB       0.113700
     21 N21          4.7930     0.7370     1.1150 nd         1 3KB      -0.503800
     22 N16          0.8850    -0.3680     0.4110 nc         1 3KB      -0.368400
     23 N22          3.6090     0.5240     0.5460 na         1 3KB       0.177300
     24 N5          -0.3170    -0.7000     0.0250 na         1 3KB      -0.156900
     25 O30          2.6140    -3.4050    -0.2360 o          1 3KB      -0.500100
     26 O2           0.1600    -4.1050    -1.0830 os         1 3KB      -0.268900
     27 F10         -5.0020    -0.1510     2.1140 f          1 3KB      -0.231967
     28 F11         -5.7770     1.6030     1.1390 f          1 3KB      -0.231967
     29 F12         -5.4990    -0.2170     0.0250 f          1 3KB      -0.231967
     30 H1           1.4590     4.4010    -2.3000 ha         1 3KB       0.134000
     31 H2           2.0960     4.7950     0.0580 ha         1 3KB       0.137000
     32 H3           1.8440     2.1780    -3.3240 ha         1 3KB       0.137000
     33 H4          -1.6400     3.6590    -0.0250 ha         1 3KB       0.148000
     34 H5          -3.9570     3.0830     0.5420 ha         1 3KB       0.156000
     35 H6           3.0850     2.9670     1.3960 ha         1 3KB       0.151000
     36 H7           2.8640     0.3660    -2.0000 ha         1 3KB       0.151000
     37 H8           0.0640     1.9010    -0.2800 ha         1 3KB       0.169000
     38 H9           4.1550    -2.4110     1.7990 ha         1 3KB       0.178000
     39 H10         -2.8700    -1.0690     0.6860 ha         1 3KB       0.154000
     40 H11          6.0650    -0.5000     2.2060 h4         1 3KB       0.041100
     41 H12         -1.6310    -2.0620    -0.8350 h4         1 3KB       0.168000
     42 H13         -1.8620    -4.3860    -0.6710 h1         1 3KB       0.045367
     43 H14         -1.4920    -3.8550    -2.3300 h1         1 3KB       0.045367
     44 H15         -1.0940    -5.5050    -1.8140 h1         1 3KB       0.045367
     45 C9          -4.9630     0.5590     0.9780 c3         1 3KB       0.722200
@<TRIPOS>BOND
     1     1     2 ar  
     2     1     3 ar  
     3     1    30 1   
     4     2     6 ar  
     5     2    31 1   
     6     3     7 ar  
     7     3    32 1   
     8     4     5 ar  
     9     4     8 ar  
    10     4    33 1   
    11     5    12 ar  
    12     5    34 1   
    13     6    13 ar  
    14     6    35 1   
    15     7    13 ar  
    16     7    36 1   
    17     8    14 ar  
    18     8    37 1   
    19     9    11 1   
    20     9    15 2   
    21     9    38 1   
    22    10    12 ar  
    23    10    14 ar  
    24    10    39 1   
    25    11    21 2   
    26    11    40 1   
    27    12    45 1   
    28    13    23 1   
    29    14    24 1   
    30    15    17 1   
    31    15    23 1   
    32    16    18 2   
    33    16    24 1   
    34    16    41 1   
    35    17    19 1   
    36    17    22 2   
    37    18    19 1   
    38    18    26 1   
    39    19    25 2   
    40    20    26 1   
    41    20    42 1   
    42    20    43 1   
    43    20    44 1   
    44    21    23 1   
    45    22    24 1   
    46    27    45 1   
    47    28    45 1   
    48    29    45 1   
@<TRIPOS>SUBSTRUCTURE
     1 3KB         1 TEMP              0 ****  ****    0 ROOT
