@<TRIPOS>MOLECULE
3KE
   53    56     1     0     0
SMALL
No Charge or Current Charge


@<TRIPOS>ATOM
      1 C3           0.8700     0.2050    -1.5550 ca         1 3KE      -0.068000
      2 C22          1.1480    -0.8110    -0.6150 ca         1 3KE      -0.144500
      3 C7          -2.3400    -1.4450     0.8640 c          1 3KE       0.612700
      4 N2          -3.6080    -0.9440     0.6770 ns         1 3KE      -0.491900
      5 C11         -4.7870    -1.3900     1.4080 c3         1 3KE       0.152300
      6 C9          -8.3200     0.8100     0.1000 ca         1 3KE      -0.123600
      7 C12         -7.9410    -0.3960    -0.5340 ca         1 3KE      -0.092000
      8 C14         -6.8030    -1.1050    -0.1100 ca         1 3KE      -0.129500
      9 C20         -6.0210    -0.6260     0.9550 ca         1 3KE      -0.154300
     10 C16         -6.3870     0.5740     1.5910 ca         1 3KE      -0.129500
     11 C18         -7.5240     1.2850     1.1700 ca         1 3KE      -0.092000
     12 C2          -0.4380     0.6870    -1.7140 ca         1 3KE      -0.131000
     13 C23          0.0840    -1.3300     0.1590 ca         1 3KE      -0.025000
     14 C8          -1.2390    -0.8520     0.0080 ca         1 3KE      -0.153600
     15 C6          -1.4880     0.1670    -0.9420 ca         1 3KE      -0.067000
     16 O3          -2.1250    -2.3270     1.6850 o          1 3KE      -0.608100
     17 O4          -9.8430     2.6180     0.2200 o          1 3KE      -0.719500
     18 O5         -10.2110     1.1320    -1.2860 o          1 3KE      -0.719500
     19 N1           3.5590    -0.8850    -1.1340 nc         1 3KE      -0.528800
     20 N5           4.5550    -1.6450    -0.6120 na         1 3KE       0.241600
     21 N3           4.1460    -2.5160     0.3510 nc         1 3KE      -0.187800
     22 N4           2.8660    -2.3120     0.4600 nd         1 3KE      -0.374000
     23 C5           2.5260    -1.3240    -0.4410 cd         1 3KE       0.562500
     24 C21          8.0840     1.9680     0.4200 ca         1 3KE       0.159100
     25 C15          7.2960     1.2030     1.2930 ca         1 3KE      -0.178000
     26 C10          6.6090     0.0700     0.8260 ca         1 3KE      -0.041000
     27 C4           6.7020    -0.3080    -0.5290 ca         1 3KE      -0.167300
     28 C19          7.4970     0.4570    -1.4050 ca         1 3KE      -0.041000
     29 C17          8.1850     1.5910    -0.9360 ca         1 3KE      -0.178000
     30 C13          9.5670     3.9190     0.1280 c3         1 3KE       0.147900
     31 H3           1.6650     0.6270    -2.1670 ha         1 3KE       0.122000
     32 HN2         -3.7250    -0.2170    -0.0140 hn         1 3KE       0.312500
     33 H11         -4.9290    -2.4660     1.2370 h1         1 3KE       0.051700
     34 H11A        -4.6230    -1.2340     2.4830 h1         1 3KE       0.051700
     35 H12         -8.5280    -0.7900    -1.3610 ha         1 3KE       0.127500
     36 H14         -6.5290    -2.0290    -0.6140 ha         1 3KE       0.088000
     37 H16         -5.7890     0.9590     2.4140 ha         1 3KE       0.088000
     38 H18         -7.7850     2.2100     1.6800 ha         1 3KE       0.127500
     39 H2          -0.6390     1.4710    -2.4420 ha         1 3KE       0.117000
     40 H23          0.2850    -2.1130     0.8870 ha         1 3KE       0.153000
     41 H6          -2.4860     0.5680    -1.0970 ha         1 3KE       0.128000
     42 H1           6.4930    -2.4430    -0.7230 h1         1 3KE       0.078200
     43 H1A          5.9680    -1.5440    -2.1480 h1         1 3KE       0.078200
     44 H15          7.2190     1.4890     2.3380 ha         1 3KE       0.125500
     45 H10          6.0070    -0.5120     1.5220 ha         1 3KE       0.120000
     46 H19          7.5840     0.1770    -2.4530 ha         1 3KE       0.120000
     47 H17          8.7880     2.1600    -1.6370 ha         1 3KE       0.125500
     48 H13         10.4020     3.3520    -0.3030 h1         1 3KE       0.042367
     49 H13A         8.9880     4.3690    -0.6890 h1         1 3KE       0.042367
     50 H13B         9.9860     4.7320     0.7350 h1         1 3KE       0.042367
     51 C1           5.9610    -1.5430    -1.0520 c3         1 3KE       0.152900
     52 C24         -9.5520     1.5790    -0.3570 c          1 3KE       0.711600
     53 O1           8.7360     3.0690     0.9380 os         1 3KE      -0.339100
@<TRIPOS>BOND
     1     1     2 ar  
     2     1    12 ar  
     3     1    31 1   
     4     2    13 ar  
     5     2    23 1   
     6     3     4 1   
     7     3    14 1   
     8     3    16 2   
     9     4     5 1   
    10     4    32 1   
    11     5     9 1   
    12     5    33 1   
    13     5    34 1   
    14     6     7 ar  
    15     6    11 ar  
    16     6    52 1   
    17     7     8 ar  
    18     7    35 1   
    19     8     9 ar  
    20     8    36 1   
    21     9    10 ar  
    22    10    11 ar  
    23    10    37 1   
    24    11    38 1   
    25    12    15 ar  
    26    12    39 1   
    27    13    14 ar  
    28    13    40 1   
    29    14    15 ar  
    30    15    41 1   
    31    17    52 1   
    32    18    52 1   
    33    19    20 1   
    34    19    23 2   
    35    20    21 1   
    36    20    51 1   
    37    21    22 2   
    38    22    23 1   
    39    24    25 ar  
    40    24    29 ar  
    41    24    53 1   
    42    25    26 ar  
    43    25    44 1   
    44    26    27 ar  
    45    26    45 1   
    46    27    28 ar  
    47    27    51 1   
    48    28    29 ar  
    49    28    46 1   
    50    29    47 1   
    51    30    48 1   
    52    30    49 1   
    53    30    50 1   
    54    30    53 1   
    55    42    51 1   
    56    43    51 1   
@<TRIPOS>SUBSTRUCTURE
     1 3KE         1 TEMP              0 ****  ****    0 ROOT
