@<TRIPOS>MOLECULE
3KE
   53    56     1     0     0
SMALL
bcc


@<TRIPOS>ATOM
      1 C3           1.0480    -0.2290    -1.8420 ca         1 3KE      -0.086000
      2 C22          1.2450    -1.0550    -0.7360 ca         1 3KE      -0.144500
      3 C7          -2.2460    -1.3900     0.6340 c          1 3KE       0.679700
      4 N2          -3.4510    -1.4850     0.0490 ns         1 3KE      -0.558900
      5 C11         -4.6750    -1.8010     0.7500 c3         1 3KE       0.152300
      6 C9          -7.6420     1.3280     0.4380 ca         1 3KE      -0.123600
      7 C12         -7.9620     0.0050     0.1490 ca         1 3KE      -0.110000
      8 C14         -7.0050    -0.9970     0.2390 ca         1 3KE      -0.147500
      9 C20         -5.7030    -0.7050     0.6260 ca         1 3KE      -0.154300
     10 C16         -5.3770     0.6180     0.9150 ca         1 3KE      -0.147500
     11 C18         -6.3330     1.6170     0.8210 ca         1 3KE      -0.110000
     12 C2          -0.2240     0.2220    -2.1500 ca         1 3KE      -0.149000
     13 C23          0.1590    -1.4160     0.0530 ca         1 3KE      -0.043000
     14 C8          -1.1220    -0.9800    -0.2670 ca         1 3KE      -0.153600
     15 C6          -1.3090    -0.1520    -1.3710 ca         1 3KE      -0.085000
     16 O3          -2.0460    -1.6220     1.8180 o          1 3KE      -0.608100
     17 O4          -8.3120     3.5840     0.6190 o          1 3KE      -0.824800
     18 O5          -9.8340     2.0830    -0.0090 o          1 3KE      -0.824800
     19 N1           3.6810    -1.1950    -1.0490 nc         1 3KE      -0.528800
     20 N5           4.6000    -1.8570    -0.3990 na         1 3KE       0.270900
     21 N3           4.1380    -2.5560     0.5960 nc         1 3KE      -0.187800
     22 N4           2.8590    -2.3690     0.6160 nd         1 3KE      -0.374000
     23 C5           2.5830    -1.5310    -0.3980 cd         1 3KE       0.562500
     24 C21          7.5230     2.0750     0.5740 ca         1 3KE       0.159100
     25 C15          7.3540     1.0370     1.4950 ca         1 3KE      -0.196000
     26 C10          6.8830    -0.1920     1.0780 ca         1 3KE      -0.059000
     27 C4           6.5670    -0.4210    -0.2610 ca         1 3KE      -0.167300
     28 C19          6.7380     0.6130    -1.1670 ca         1 3KE      -0.059000
     29 C17          7.2150     1.8560    -0.7660 ca         1 3KE      -0.196000
     30 C13          8.1560     4.3280     0.1850 c3         1 3KE       0.124700
     31 H3           1.8860     0.0630    -2.4610 ha         1 3KE       0.140000
     32 HN2         -3.5200    -1.3730    -0.9500 hn         1 3KE       0.312500
     33 H11         -5.0850    -2.7380     0.3660 h1         1 3KE       0.051700
     34 H11A        -4.4280    -1.9710     1.7970 h1         1 3KE       0.051700
     35 H12         -8.9700    -0.2460    -0.1550 ha         1 3KE       0.145500
     36 H14         -7.2760    -2.0200     0.0030 ha         1 3KE       0.106000
     37 H16         -4.3670     0.8750     1.2160 ha         1 3KE       0.106000
     38 H18         -6.0610     2.6390     1.0500 ha         1 3KE       0.145500
     39 H2          -0.3720     0.8740    -3.0010 ha         1 3KE       0.135000
     40 H23          0.3080    -2.0480     0.9180 ha         1 3KE       0.171000
     41 H6          -2.2900     0.2320    -1.6210 ha         1 3KE       0.146000
     42 H1           6.5030    -2.5790    -0.1860 h1         1 3KE       0.078200
     43 H1A          6.1390    -1.8980    -1.7720 h1         1 3KE       0.078200
     44 H15          7.5970     1.2040     2.5370 ha         1 3KE       0.143500
     45 H10          6.7620    -0.9840     1.8080 ha         1 3KE       0.138000
     46 H19          6.5020     0.4580    -2.2130 ha         1 3KE       0.138000
     47 H17          7.3360     2.6310    -1.5100 ha         1 3KE       0.143500
     48 H13          8.8890     4.1130    -0.5960 h1         1 3KE       0.042367
     49 H13A         7.2140     4.6200    -0.2860 h1         1 3KE       0.042367
     50 H13B         8.5190     5.1580     0.7870 h1         1 3KE       0.042367
     51 C1           6.0210    -1.7490    -0.7000 c3         1 3KE       0.123600
     52 C24         -8.6890     2.4300     0.3400 c          1 3KE       0.922200
     53 O1           7.9870     3.2360     1.0670 os         1 3KE      -0.315900
@<TRIPOS>BOND
     1     1     2 ar  
     2     1    12 ar  
     3     1    31 1   
     4     2    13 ar  
     5     2    23 1   
     6     3     4 1   
     7     3    14 1   
     8     3    16 2   
     9     4     5 1   
    10     4    32 1   
    11     5     9 1   
    12     5    33 1   
    13     5    34 1   
    14     6     7 ar  
    15     6    11 ar  
    16     6    52 1   
    17     7     8 ar  
    18     7    35 1   
    19     8     9 ar  
    20     8    36 1   
    21     9    10 ar  
    22    10    11 ar  
    23    10    37 1   
    24    11    38 1   
    25    12    15 ar  
    26    12    39 1   
    27    13    14 ar  
    28    13    40 1   
    29    14    15 ar  
    30    15    41 1   
    31    17    52 1   
    32    18    52 1   
    33    19    20 1   
    34    19    23 2   
    35    20    21 1   
    36    20    51 1   
    37    21    22 2   
    38    22    23 1   
    39    24    25 ar  
    40    24    29 ar  
    41    24    53 1   
    42    25    26 ar  
    43    25    44 1   
    44    26    27 ar  
    45    26    45 1   
    46    27    28 ar  
    47    27    51 1   
    48    28    29 ar  
    49    28    46 1   
    50    29    47 1   
    51    30    48 1   
    52    30    49 1   
    53    30    50 1   
    54    30    53 1   
    55    42    51 1   
    56    43    51 1   
@<TRIPOS>SUBSTRUCTURE
     1 3KE         1 TEMP              0 ****  ****    0 ROOT
