@<TRIPOS>MOLECULE
3KF
   35    38     1     0     0
SMALL
bcc


@<TRIPOS>ATOM
      1 C1           2.7200     1.3160    -0.5260 ca         1 3KF       0.127100
      2 C2           3.3030     0.1080    -0.2040 ca         1 3KF      -0.028900
      3 C3           2.5520    -1.0140     0.0740 ca         1 3KF       0.247100
      4 C4           1.1470    -0.8600    -0.0130 ca         1 3KF      -0.274600
      5 C5           0.5680     0.3820    -0.3280 ca         1 3KF       0.036200
      6 C6           1.3550     1.5000    -0.5940 ca         1 3KF      -0.165000
      7 C7          -0.8980     0.4490    -0.2970 ce         1 3KF      -0.069400
      8 C8          -1.5780     1.4990     0.1600 c2         1 3KF      -0.147200
      9 C9          -3.0670     1.5010     0.3390 c6         1 3KF       0.143300
     10 O1           4.6570     0.2220    -0.2460 os         1 3KF      -0.297900
     11 C10         -3.5550     0.0690     0.5310 c6         1 3KF       0.115100
     12 C11         -3.0900    -0.7950    -0.6310 c6         1 3KF       0.151100
     13 C12         -1.5640    -0.8260    -0.7270 c6         1 3KF       0.149900
     14 C13          0.3020    -2.0230     0.3030 c          1 3KF       0.736100
     15 O3          -3.5560    -0.3000    -1.8630 oh         1 3KF      -0.598800
     16 O4          -4.9570    -0.0120     0.5840 oh         1 3KF      -0.607800
     17 O5          -3.4430     2.2310     1.4890 oh         1 3KF      -0.599800
     18 O6           3.1510    -2.1560     0.3990 oh         1 3KF      -0.486100
     19 C            4.9100     1.6140    -0.3560 c5         1 3KF       0.323200
     20 N           -1.0140    -1.9050     0.0810 ns         1 3KF      -0.542900
     21 O            3.6880     2.2220    -0.7680 os         1 3KF      -0.318900
     22 H1           0.9200     2.4540    -0.8590 ha         1 3KF       0.158000
     23 H2          -1.0460     2.3950     0.4660 ha         1 3KF       0.141000
     24 H3          -3.5470     1.9250    -0.5530 h1         1 3KF       0.063700
     25 H4          -3.0980    -0.3230     1.4530 h1         1 3KF       0.068700
     26 H5          -3.4490    -1.8230    -0.4670 h1         1 3KF       0.055700
     27 H6          -1.3150    -1.0130    -1.7800 h1         1 3KF       0.083700
     28 H7          -4.5120    -0.1940    -1.8020 ho         1 3KF       0.429000
     29 H8          -5.2720     0.6270     1.2320 ho         1 3KF       0.430000
     30 H9          -3.4670     3.1660     1.2660 ho         1 3KF       0.414000
     31 H10          2.4270    -2.7900     0.6300 ho         1 3KF       0.485000
     32 H11          5.2100     2.0220     0.6150 h2         1 3KF       0.067700
     33 H12          5.6800     1.7940    -1.1050 h2         1 3KF       0.067700
     34 H13         -1.5620    -2.7490     0.1780 hn         1 3KF       0.325500
     35 O2           0.7910    -3.0680     0.7600 o          1 3KF      -0.681500
@<TRIPOS>BOND
     1     1     2 ar  
     2     1     6 ar  
     3     1    21 1   
     4     2     3 ar  
     5     2    10 1   
     6     3     4 ar  
     7     3    18 1   
     8     4     5 ar  
     9     4    14 1   
    10     5     6 ar  
    11     5     7 1   
    12     6    22 1   
    13     7     8 2   
    14     7    13 1   
    15     8     9 1   
    16     8    23 1   
    17     9    11 1   
    18     9    17 1   
    19     9    24 1   
    20    10    19 1   
    21    11    12 1   
    22    11    16 1   
    23    11    25 1   
    24    12    13 1   
    25    12    15 1   
    26    12    26 1   
    27    13    20 1   
    28    13    27 1   
    29    14    20 1   
    30    14    35 2   
    31    15    28 1   
    32    16    29 1   
    33    17    30 1   
    34    18    31 1   
    35    19    21 1   
    36    19    32 1   
    37    19    33 1   
    38    20    34 1   
@<TRIPOS>SUBSTRUCTURE
     1 3KF         1 TEMP              0 ****  ****    0 ROOT
