@<TRIPOS>MOLECULE
3KF
   35    38     1     0     0
SMALL
No Charge or Current Charge


@<TRIPOS>ATOM
      1 C1           2.7710     1.3640    -0.3770 ca         1 3KF       0.127100
      2 C2           3.3730     0.1680    -0.1140 ca         1 3KF      -0.028900
      3 C3           2.6180    -0.9950     0.1110 ca         1 3KF       0.247100
      4 C4           1.2070    -0.9090     0.0460 ca         1 3KF      -0.274600
      5 C5           0.5910     0.3450    -0.2130 ca         1 3KF       0.036200
      6 C6           1.3810     1.4950    -0.4290 ca         1 3KF      -0.147000
      7 C7          -0.8950     0.4130    -0.2250 ce         1 3KF      -0.069400
      8 C8          -1.5900     1.4720     0.2600 c2         1 3KF      -0.197200
      9 C9          -3.1040     1.5020     0.3270 c6         1 3KF       0.166500
     10 O1           4.7320     0.2730    -0.0870 os         1 3KF      -0.321100
     11 C10         -3.6710     0.0580     0.4660 c6         1 3KF       0.138300
     12 C11         -3.1430    -0.8520    -0.6820 c6         1 3KF       0.174300
     13 C12         -1.5780    -0.8690    -0.7250 c6         1 3KF       0.149900
     14 C13          0.3470    -2.1210     0.2800 c          1 3KF       0.593600
     15 O3          -3.6950    -0.4100    -1.9380 oh         1 3KF      -0.721000
     16 O4          -5.1130     0.0910     0.4680 oh         1 3KF      -0.670000
     17 O5          -3.5270     2.3070     1.4380 oh         1 3KF      -0.722000
     18 O6           3.2330    -2.1800     0.3880 oh         1 3KF      -0.525100
     19 C            4.9580     1.6760    -0.4650 c5         1 3KF       0.369600
     20 N           -0.9930    -1.9910     0.0220 ns         1 3KF      -0.475900
     21 O            3.6650     2.3710    -0.5500 os         1 3KF      -0.342100
     22 H1           0.9310     2.4620    -0.6370 ha         1 3KF       0.140000
     23 H2          -1.0700     2.3450     0.6540 ha         1 3KF       0.191000
     24 H3          -3.4790     1.9360    -0.6140 h1         1 3KF       0.063700
     25 H4          -3.3070    -0.3580     1.4180 h1         1 3KF       0.068700
     26 H5          -3.4890    -1.8780    -0.4860 h1         1 3KF       0.055700
     27 H6          -1.2830    -1.0130    -1.7760 h1         1 3KF       0.083700
     28 H7          -4.6370    -0.1960    -1.7290 ho         1 3KF       0.528000
     29 H8          -5.3470     0.8360     1.0700 ho         1 3KF       0.469000
     30 H9          -3.2780     3.2380     1.2300 ho         1 3KF       0.513000
     31 H10          2.5010    -2.8230     0.5740 ho         1 3KF       0.524000
     32 H11          5.5920     2.1640     0.2840 h2         1 3KF       0.067700
     33 H12          5.4460     1.7070    -1.4470 h2         1 3KF       0.067700
     34 H13         -1.5580    -2.8120     0.2010 hn         1 3KF       0.325500
     35 O2           0.8030    -3.1730     0.7010 o          1 3KF      -0.606000
@<TRIPOS>BOND
     1     1     2 ar  
     2     1     6 ar  
     3     1    21 1   
     4     2     3 ar  
     5     2    10 1   
     6     3     4 ar  
     7     3    18 1   
     8     4     5 ar  
     9     4    14 1   
    10     5     6 ar  
    11     5     7 1   
    12     6    22 1   
    13     7     8 2   
    14     7    13 1   
    15     8     9 1   
    16     8    23 1   
    17     9    11 1   
    18     9    17 1   
    19     9    24 1   
    20    10    19 1   
    21    11    12 1   
    22    11    16 1   
    23    11    25 1   
    24    12    13 1   
    25    12    15 1   
    26    12    26 1   
    27    13    20 1   
    28    13    27 1   
    29    14    20 1   
    30    14    35 2   
    31    15    28 1   
    32    16    29 1   
    33    17    30 1   
    34    18    31 1   
    35    19    21 1   
    36    19    32 1   
    37    19    33 1   
    38    20    34 1   
@<TRIPOS>SUBSTRUCTURE
     1 3KF         1 TEMP              0 ****  ****    0 ROOT
