@<TRIPOS>MOLECULE
3KG
   41    44     1     0     0
SMALL
bcc


@<TRIPOS>ATOM
      1 C12          1.7490     3.5700    -1.2010 ca         1 3KG      -0.133000
      2 C11          2.0540     3.5670     0.1540 ca         1 3KG      -0.127500
      3 C13          2.0410     2.4550    -1.9770 ca         1 3KG      -0.127500
      4 C19         -2.0390     2.1590     0.2680 ca         1 3KG      -0.121000
      5 C20         -3.3390     1.7430     0.5260 ca         1 3KG      -0.078000
      6 C10          2.6400     2.4530     0.7380 ca         1 3KG      -0.116500
      7 C14          2.6380     1.3420    -1.4050 ca         1 3KG      -0.116500
      8 C18         -1.0410     1.2380     0.0110 ca         1 3KG      -0.083000
      9 C5           4.1770    -1.8000     1.1210 cc         1 3KG      -0.250300
     10 C26         -2.6320    -0.5520     0.2960 ca         1 3KG      -0.101000
     11 C6           5.1040    -0.8280     1.5200 cc         1 3KG       0.297200
     12 C21         -3.6290     0.3870     0.5380 ca         1 3KG      -0.182300
     13 C9           2.9270     1.3450    -0.0460 ca         1 3KG       0.024800
     14 C17         -1.3470    -0.1180     0.0220 ca         1 3KG       0.138600
     15 C4           3.1720    -1.0890     0.5010 cd         1 3KG      -0.122200
     16 C28          0.4450    -3.0870    -1.1810 cc         1 3KG      -0.317200
     17 C27         -0.5500    -2.2000    -0.9500 cd         1 3KG       0.082000
     18 C3           1.8800    -1.5370    -0.0090 cd         1 3KG       0.350900
     19 C2           1.7730    -2.8320    -0.6990 c          1 3KG       0.473000
     20 N7           4.7190     0.3810     1.1610 nd         1 3KG      -0.500800
     21 N15          0.8760    -0.7470     0.2030 nc         1 3KG      -0.385400
     22 N8           3.5500     0.2190     0.5470 na         1 3KG       0.178300
     23 N16         -0.3210    -1.0640    -0.2490 na         1 3KG      -0.179900
     24 O1           2.7310    -3.5840    -0.8450 o          1 3KG      -0.527100
     25 F23         -5.0280    -1.0080     1.8070 f          1 3KG      -0.231633
     26 F24         -5.8570     0.8660     1.1490 f          1 3KG      -0.231633
     27 F25         -5.5340    -0.7270    -0.2610 f          1 3KG      -0.231633
     28 H1           1.2860     4.4380    -1.6500 ha         1 3KG       0.135000
     29 H2           1.8270     4.4310     0.7640 ha         1 3KG       0.137000
     30 H3           1.8130     2.4530    -3.0340 ha         1 3KG       0.137000
     31 H4          -1.8080     3.2150     0.2570 ha         1 3KG       0.148000
     32 H5          -4.1040     2.4820     0.7160 ha         1 3KG       0.156000
     33 H6           2.8680     2.4420     1.7950 ha         1 3KG       0.151000
     34 H7           2.8830     0.4810    -2.0140 ha         1 3KG       0.151000
     35 H8          -0.0340     1.5670    -0.2010 ha         1 3KG       0.169000
     36 H9           4.2170    -2.8610     1.2920 ha         1 3KG       0.179000
     37 H10         -2.8520    -1.6110     0.3450 ha         1 3KG       0.155000
     38 H11          6.0350    -0.9680     2.0470 h4         1 3KG       0.042100
     39 H12          0.2370    -3.9800    -1.7530 ha         1 3KG       0.170000
     40 H13         -1.5510    -2.3430    -1.3270 h4         1 3KG       0.164000
     41 C22         -5.0140    -0.1120     0.8110 c3         1 3KG       0.723200
@<TRIPOS>BOND
     1     1     2 ar  
     2     1     3 ar  
     3     1    28 1   
     4     2     6 ar  
     5     2    29 1   
     6     3     7 ar  
     7     3    30 1   
     8     4     5 ar  
     9     4     8 ar  
    10     4    31 1   
    11     5    12 ar  
    12     5    32 1   
    13     6    13 ar  
    14     6    33 1   
    15     7    13 ar  
    16     7    34 1   
    17     8    14 ar  
    18     8    35 1   
    19     9    11 1   
    20     9    15 2   
    21     9    36 1   
    22    10    12 ar  
    23    10    14 ar  
    24    10    37 1   
    25    11    20 2   
    26    11    38 1   
    27    12    41 1   
    28    13    22 1   
    29    14    23 1   
    30    15    18 1   
    31    15    22 1   
    32    16    17 2   
    33    16    19 1   
    34    16    39 1   
    35    17    23 1   
    36    17    40 1   
    37    18    19 1   
    38    18    21 2   
    39    19    24 2   
    40    20    22 1   
    41    21    23 1   
    42    25    41 1   
    43    26    41 1   
    44    27    41 1   
@<TRIPOS>SUBSTRUCTURE
     1 3KG         1 TEMP              0 ****  ****    0 ROOT
