@<TRIPOS>MOLECULE
3KG
   41    44     1     0     0
SMALL
No Charge or Current Charge


@<TRIPOS>ATOM
      1 C12          1.0960     3.4780     0.1880 ca         1 3KG      -0.115000
      2 C11          1.2470     2.8470     1.4350 ca         1 3KG      -0.109500
      3 C13          1.8390     3.0340    -0.9190 ca         1 3KG      -0.109500
      4 C19         -2.3060     1.6330    -1.8290 ca         1 3KG      -0.103000
      5 C20         -3.2980     1.7090    -0.8360 ca         1 3KG      -0.060000
      6 C10          2.1350     1.7660     1.5740 ca         1 3KG      -0.098500
      7 C14          2.7280     1.9520    -0.7810 ca         1 3KG      -0.098500
      8 C18         -1.2860     0.6710    -1.7350 ca         1 3KG      -0.065000
      9 C5           4.4250    -1.8400     0.4860 cc         1 3KG      -0.167000
     10 C26         -2.2470    -0.1410     0.3450 ca         1 3KG      -0.083000
     11 C6           5.4470    -0.9500     0.8650 cc         1 3KG       0.231900
     12 C21         -3.2740     0.8280     0.2680 ca         1 3KG      -0.182300
     13 C9           2.8710     1.3060     0.4630 ca         1 3KG       0.024800
     14 C17         -1.2560    -0.2240    -0.6520 ca         1 3KG       0.277000
     15 C4           3.2910    -1.0930     0.3030 cd         1 3KG      -0.172900
     16 C28          0.3130    -3.3900    -0.7780 cc         1 3KG      -0.367200
     17 C27         -0.6880    -2.4550    -0.8760 cd         1 3KG       0.032000
     18 C3           1.9690    -1.5950    -0.0930 cd         1 3KG       0.350900
     19 C2           1.6870    -3.0560    -0.3890 c          1 3KG       0.473000
     20 N7           5.0750     0.3130     0.9370 nd         1 3KG      -0.500800
     21 N15          0.9990    -0.6700    -0.1760 nc         1 3KG      -0.385400
     22 N8           3.7370     0.2180     0.5950 na         1 3KG       0.229000
     23 N16         -0.2310    -1.1710    -0.5530 na         1 3KG      -0.318300
     24 O1           2.5160    -3.9580    -0.3300 o          1 3KG      -0.527100
     25 F23         -3.8800     0.5530     2.5720 f          1 3KG      -0.110333
     26 F24         -4.8690     2.1470     1.4850 f          1 3KG      -0.110333
     27 F25         -5.3850     0.0750     1.0780 f          1 3KG      -0.110333
     28 H1           0.4060     4.3130     0.0810 ha         1 3KG       0.117000
     29 H2           0.6730     3.1930     2.2930 ha         1 3KG       0.119000
     30 H3           1.7240     3.5240    -1.8830 ha         1 3KG       0.119000
     31 H4          -2.3280     2.3210    -2.6720 ha         1 3KG       0.130000
     32 H5          -4.0830     2.4570    -0.9300 ha         1 3KG       0.138000
     33 H6           2.2440     1.2750     2.5390 ha         1 3KG       0.133000
     34 H7           3.2960     1.6060    -1.6420 ha         1 3KG       0.133000
     35 H8          -0.5150     0.6160    -2.4980 ha         1 3KG       0.151000
     36 H9           4.5700    -2.9090     0.3810 ha         1 3KG       0.161000
     37 H10         -2.2060    -0.8340     1.1820 ha         1 3KG       0.137000
     38 H11          6.4760    -1.2010     1.0900 h4         1 3KG       0.042100
     39 H12          0.1290    -4.4370    -0.9910 ha         1 3KG       0.220000
     40 H13         -1.7250    -2.6310    -1.1620 h4         1 3KG       0.214000
     41 C22         -4.3530     0.9030     1.3540 c3         1 3KG       0.359300
@<TRIPOS>BOND
     1     1     2 ar  
     2     1     3 ar  
     3     1    28 1   
     4     2     6 ar  
     5     2    29 1   
     6     3     7 ar  
     7     3    30 1   
     8     4     5 ar  
     9     4     8 ar  
    10     4    31 1   
    11     5    12 ar  
    12     5    32 1   
    13     6    13 ar  
    14     6    33 1   
    15     7    13 ar  
    16     7    34 1   
    17     8    14 ar  
    18     8    35 1   
    19     9    11 1   
    20     9    15 2   
    21     9    36 1   
    22    10    12 ar  
    23    10    14 ar  
    24    10    37 1   
    25    11    20 2   
    26    11    38 1   
    27    12    41 1   
    28    13    22 1   
    29    14    23 1   
    30    15    18 1   
    31    15    22 1   
    32    16    17 2   
    33    16    19 1   
    34    16    39 1   
    35    17    23 1   
    36    17    40 1   
    37    18    19 1   
    38    18    21 2   
    39    19    24 2   
    40    20    22 1   
    41    21    23 1   
    42    25    41 1   
    43    26    41 1   
    44    27    41 1   
@<TRIPOS>SUBSTRUCTURE
     1 3KG         1 TEMP              0 ****  ****    0 ROOT
