@<TRIPOS>MOLECULE
3KH
   21    23     1     0     0
SMALL
No Charge or Current Charge


@<TRIPOS>ATOM
      1 CAA          1.0690    -0.9620    -0.0030 ca         1 3KH      -0.067000
      2 CAF          2.4270    -0.6190     0.0290 ca         1 3KH      -0.085200
      3 NAH          3.5420    -1.4060     0.0450 na         1 3KH      -0.065400
      4 NAI          4.6610    -0.5790     0.0770 nc         1 3KH      -0.154400
      5 NAG          4.2480     0.6900     0.0800 nd         1 3KH      -0.222400
      6 CAE          2.8640     0.6620     0.0510 ca         1 3KH       0.020400
      7 CAD          1.9600     1.7310     0.0420 ca         1 3KH      -0.028000
      8 CAC          0.5780     1.4360     0.0100 ca         1 3KH      -0.128000
      9 CAB          0.1120     0.0880    -0.0130 ca         1 3KH      -0.098500
     10 CAJ         -1.3300    -0.2230    -0.0470 cc         1 3KH       0.452900
     11 S           -2.5520     1.0240    -0.0590 ss         1 3KH      -0.319800
     12 NAM         -1.8090    -1.4650    -0.0690 nd         1 3KH      -0.294000
     13 NAL         -3.1920    -1.4900    -0.1000 nd         1 3KH      -0.410000
     14 CAK         -3.6810    -0.2720    -0.1000 cc         1 3KH       0.665300
     15 NAO         -5.0060    -0.0560    -0.1230 nv         1 3KH      -1.037900
     16 H1           0.7700    -2.0080    -0.0200 ha         1 3KH       0.149000
     17 H2           3.6080    -2.4200     0.0360 hn         1 3KH       0.386000
     18 H3           2.3140     2.7590     0.0590 ha         1 3KH       0.138000
     19 H4          -0.1220     2.2680     0.0030 ha         1 3KH       0.120000
     20 H5          -5.3250     0.8580     0.1770 hn         1 3KH       0.489000
     21 H6          -5.5950    -0.8440     0.1220 hn         1 3KH       0.489000
@<TRIPOS>BOND
     1     1     2 ar  
     2     1     9 ar  
     3     1    16 1   
     4     2     3 1   
     5     2     6 ar  
     6     3     4 1   
     7     3    17 1   
     8     4     5 2   
     9     5     6 1   
    10     6     7 ar  
    11     7     8 ar  
    12     7    18 1   
    13     8     9 ar  
    14     8    19 1   
    15     9    10 1   
    16    10    11 1   
    17    10    12 2   
    18    11    14 1   
    19    12    13 1   
    20    13    14 2   
    21    14    15 1   
    22    15    20 1   
    23    15    21 1   
@<TRIPOS>SUBSTRUCTURE
     1 3KH         1 TEMP              0 ****  ****    0 ROOT
