@<TRIPOS>MOLECULE
3KH
   21    23     1     0     0
SMALL
abcg2


@<TRIPOS>ATOM
      1 CAA          1.0450    -0.9880    -0.0060 ca         1 3KH      -0.067000
      2 CAF          2.3950    -0.6520     0.0240 ca         1 3KH      -0.085200
      3 NAH          3.5410    -1.3690     0.0380 na         1 3KH      -0.065400
      4 NAI          4.5960    -0.5700     0.0680 nc         1 3KH      -0.154400
      5 NAG          4.2140     0.6490     0.0750 nd         1 3KH      -0.222400
      6 CAE          2.8500     0.6690     0.0480 ca         1 3KH       0.020400
      7 CAD          1.9380     1.7280     0.0420 ca         1 3KH      -0.028000
      8 CAC          0.6030     1.4100     0.0120 ca         1 3KH      -0.128000
      9 CAB          0.1480     0.0670    -0.0110 ca         1 3KH      -0.098500
     10 CAJ         -1.2840    -0.2230    -0.0360 cc         1 3KH       0.452900
     11 S           -2.5100     1.0190    -0.0500 ss         1 3KH      -0.319800
     12 NAM         -1.7850    -1.4100    -0.0470 nd         1 3KH      -0.294000
     13 NAL         -3.1270    -1.4560    -0.0600 nd         1 3KH      -0.410000
     14 CAK         -3.6710    -0.2710    -0.0650 cc         1 3KH       0.665300
     15 NAO         -4.9930    -0.0430    -0.1310 nv         1 3KH      -1.037900
     16 H1           0.7100    -2.0160    -0.0230 ha         1 3KH       0.149000
     17 H2           3.6710    -2.3700     0.0270 hn         1 3KH       0.386000
     18 H3           2.2680     2.7580     0.0600 ha         1 3KH       0.138000
     19 H4          -0.1160     2.2200     0.0070 ha         1 3KH       0.120000
     20 H5          -5.3570     0.8490     0.1570 hn         1 3KH       0.489000
     21 H6          -5.5930    -0.8290     0.0670 hn         1 3KH       0.489000
@<TRIPOS>BOND
     1     1     2 ar  
     2     1     9 ar  
     3     1    16 1   
     4     2     3 1   
     5     2     6 ar  
     6     3     4 1   
     7     3    17 1   
     8     4     5 2   
     9     5     6 1   
    10     6     7 ar  
    11     7     8 ar  
    12     7    18 1   
    13     8     9 ar  
    14     8    19 1   
    15     9    10 1   
    16    10    11 1   
    17    10    12 2   
    18    11    14 1   
    19    12    13 1   
    20    13    14 2   
    21    14    15 1   
    22    15    20 1   
    23    15    21 1   
@<TRIPOS>SUBSTRUCTURE
     1 3KH         1 TEMP              0 ****  ****    0 ROOT
