@<TRIPOS>MOLECULE
3KL
   64    67     1     0     0
SMALL
No Charge or Current Charge


@<TRIPOS>ATOM
      1 C2          -4.6830     1.8260    -1.2300 c6         1 3KL      -0.184400
      2 C3          -5.3580     0.5780    -1.8030 c          1 3KL       0.578100
      3 O3          -6.3460     0.6460    -2.5230 o          1 3KL      -0.535100
      4 C4          -4.7590    -0.7620    -1.3680 c6         1 3KL      -0.183400
      5 C5          -4.5160    -0.8480     0.1760 c6         1 3KL      -0.039700
      6 C6          -3.8150    -2.1880     0.5440 c6         1 3KL      -0.069400
      7 C1          -4.4880     1.7020     0.3010 c6         1 3KL      -0.062400
      8 C7          -2.3320    -2.2240     0.1020 c6         1 3KL      -0.072400
      9 C8          -1.5290    -1.0100     0.6500 c6         1 3KL      -0.044700
     10 C9          -2.2270     0.3500     0.2790 c6         1 3KL      -0.044700
     11 C10         -3.7420     0.3970     0.7630 c6         1 3KL      -0.033000
     12 C11         -1.3610     1.5620     0.7670 c6         1 3KL      -0.071400
     13 C12          0.1080     1.4970     0.2580 c6         1 3KL      -0.061400
     14 C13          0.8210     0.1610     0.6470 c5         1 3KL      -0.039000
     15 C14         -0.0700    -1.0080     0.1050 c5         1 3KL      -0.066700
     16 C15          0.8030    -2.2540     0.3900 c5         1 3KL      -0.073400
     17 C16          2.2430    -1.7550     0.0570 c5         1 3KL      -0.077400
     18 C17          2.1340    -0.1960    -0.1650 c5         1 3KL      -0.047700
     19 C18          1.0590     0.1590     2.1970 c3         1 3KL      -0.075100
     20 C19         -3.8360     0.3800     2.3320 c3         1 3KL      -0.083100
     21 C20          3.4790     0.5650     0.1430 c3         1 3KL      -0.057700
     22 C21          3.3550     2.1090     0.0610 c3         1 3KL      -0.080100
     23 C22          4.6420     0.0460    -0.7660 c3         1 3KL      -0.060400
     24 C23          6.0640     0.5740    -0.4230 c3         1 3KL      -0.205400
     25 C24          7.1300    -0.2350    -1.1860 c          1 3KL       0.715000
     26 OT1          7.4480     0.1400    -2.3040 o          1 3KL      -0.743000
     27 OT2          7.5770    -1.2430    -0.6590 o          1 3KL      -0.743000
     28 H1          -3.6810     1.8830    -1.6720 hc         1 3KL       0.067200
     29 H2          -5.2450     2.7260    -1.5090 hc         1 3KL       0.067200
     30 H3          -5.3800    -1.5870    -1.7400 hc         1 3KL       0.067200
     31 H4          -3.7820    -0.8140    -1.8610 hc         1 3KL       0.067200
     32 H5          -5.5130    -0.8700     0.6400 hc         1 3KL       0.042700
     33 H6          -3.8780    -2.3610     1.6270 hc         1 3KL       0.037700
     34 H7          -4.3540    -3.0280     0.0850 hc         1 3KL       0.037700
     35 H8          -3.9880     2.6000     0.6840 hc         1 3KL       0.042700
     36 H9          -5.4860     1.7210     0.7630 hc         1 3KL       0.042700
     37 H10         -1.8820    -3.1600     0.4600 hc         1 3KL       0.040200
     38 H11         -2.2650    -2.2600    -0.9930 hc         1 3KL       0.040200
     39 H12         -1.4780    -1.1120     1.7400 hc         1 3KL       0.048700
     40 H13         -2.2180     0.4090    -0.8160 hc         1 3KL       0.041700
     41 H14         -1.7930     2.5040     0.4080 hc         1 3KL       0.033200
     42 H15         -1.3660     1.6280     1.8620 hc         1 3KL       0.033200
     43 H16          0.1120     1.6200    -0.8340 hc         1 3KL       0.041700
     44 H17          0.6420     2.3610     0.6650 hc         1 3KL       0.041700
     45 H18         -0.1940    -0.9110    -0.9820 hc         1 3KL       0.041700
     46 H19          0.7210    -2.5820     1.4320 hc         1 3KL       0.032700
     47 H20          0.5160    -3.1080    -0.2340 hc         1 3KL       0.032700
     48 H21          2.9290    -2.0040     0.8760 hc         1 3KL       0.053700
     49 H22          2.6350    -2.2520    -0.8370 hc         1 3KL       0.053700
     50 H23          1.9470    -0.0080    -1.2300 hc         1 3KL       0.041700
     51 H24          0.1240     0.1650     2.7670 hc         1 3KL       0.029367
     52 H25          1.6300    -0.7110     2.5380 hc         1 3KL       0.029367
     53 H26          1.6270     1.0440     2.5080 hc         1 3KL       0.029367
     54 H27         -3.3090    -0.4620     2.7900 hc         1 3KL       0.033367
     55 H28         -3.4280     1.2950     2.7740 hc         1 3KL       0.033367
     56 H29         -4.8800     0.3130     2.6640 hc         1 3KL       0.033367
     57 H30          3.7650     0.3330     1.1760 hc         1 3KL       0.037700
     58 H31          2.7660     2.4950     0.8970 hc         1 3KL       0.023700
     59 H32          4.3270     2.6050     0.1380 hc         1 3KL       0.023700
     60 H33          2.8870     2.4180    -0.8810 hc         1 3KL       0.023700
     61 H34          4.6850    -1.0470    -0.7000 hc         1 3KL       0.041700
     62 H35          4.4130     0.2790    -1.8130 hc         1 3KL       0.041700
     63 H36          6.0960     1.6200    -0.7470 hc         1 3KL       0.015700
     64 H37          6.1870     0.4370     0.6580 hc         1 3KL       0.015700
@<TRIPOS>BOND
     1     1     2 1   
     2     1     7 1   
     3     1    28 1   
     4     1    29 1   
     5     2     3 2   
     6     2     4 1   
     7     4     5 1   
     8     4    30 1   
     9     4    31 1   
    10     5     6 1   
    11     5    11 1   
    12     5    32 1   
    13     6     8 1   
    14     6    33 1   
    15     6    34 1   
    16     7    11 1   
    17     7    35 1   
    18     7    36 1   
    19     8     9 1   
    20     8    37 1   
    21     8    38 1   
    22     9    10 1   
    23     9    15 1   
    24     9    39 1   
    25    10    11 1   
    26    10    12 1   
    27    10    40 1   
    28    11    20 1   
    29    12    13 1   
    30    12    41 1   
    31    12    42 1   
    32    13    14 1   
    33    13    43 1   
    34    13    44 1   
    35    14    15 1   
    36    14    18 1   
    37    14    19 1   
    38    15    16 1   
    39    15    45 1   
    40    16    17 1   
    41    16    46 1   
    42    16    47 1   
    43    17    18 1   
    44    17    48 1   
    45    17    49 1   
    46    18    21 1   
    47    18    50 1   
    48    19    51 1   
    49    19    52 1   
    50    19    53 1   
    51    20    54 1   
    52    20    55 1   
    53    20    56 1   
    54    21    22 1   
    55    21    23 1   
    56    21    57 1   
    57    22    58 1   
    58    22    59 1   
    59    22    60 1   
    60    23    24 1   
    61    23    61 1   
    62    23    62 1   
    63    24    25 1   
    64    24    63 1   
    65    24    64 1   
    66    25    26 1   
    67    25    27 1   
@<TRIPOS>SUBSTRUCTURE
     1 3KL         1 TEMP              0 ****  ****    0 ROOT
