@<TRIPOS>MOLECULE
3KL
   64    67     1     0     0
SMALL
abcg2


@<TRIPOS>ATOM
      1 C2          -4.6260     1.6930    -1.2320 c6         1 3KL      -0.184400
      2 C3          -5.3370     0.4540    -1.7000 c          1 3KL       0.578100
      3 O3          -6.3080     0.4880    -2.4270 o          1 3KL      -0.535100
      4 C4          -4.7400    -0.8330    -1.2060 c6         1 3KL      -0.183400
      5 C5          -4.4530    -0.8430     0.3070 c6         1 3KL      -0.039700
      6 C6          -3.7520    -2.1410     0.7030 c6         1 3KL      -0.069400
      7 C1          -4.4140     1.6490     0.2800 c6         1 3KL      -0.062400
      8 C7          -2.3100    -2.1940     0.2130 c6         1 3KL      -0.072400
      9 C8          -1.5080    -0.9760     0.6600 c6         1 3KL      -0.044700
     10 C9          -2.2150     0.3360     0.2710 c6         1 3KL      -0.044700
     11 C10         -3.6730     0.4030     0.7880 c6         1 3KL      -0.033000
     12 C11         -1.3650     1.5440     0.6730 c6         1 3KL      -0.071400
     13 C12          0.0670     1.4940     0.1320 c6         1 3KL      -0.061400
     14 C13          0.7830     0.1980     0.5150 c5         1 3KL      -0.039000
     15 C14         -0.1140    -0.9660     0.0520 c5         1 3KL      -0.066700
     16 C15          0.7680    -2.1960     0.2220 c5         1 3KL      -0.073400
     17 C16          2.1750    -1.6830    -0.1420 c5         1 3KL      -0.077400
     18 C17          2.0820    -0.1370    -0.2620 c5         1 3KL      -0.047700
     19 C18          1.0560     0.1620     2.0220 c3         1 3KL      -0.075100
     20 C19         -3.7120     0.4670     2.3210 c3         1 3KL      -0.083100
     21 C20          3.3950     0.5530     0.1400 c3         1 3KL      -0.057700
     22 C21          3.3200     2.0750     0.0450 c3         1 3KL      -0.080100
     23 C22          4.5540     0.0180    -0.7130 c3         1 3KL      -0.060400
     24 C23          5.9360     0.4800    -0.2730 c3         1 3KL      -0.205400
     25 C24          7.1200    -0.2070    -0.9790 c          1 3KL       0.715000
     26 OT1          8.2290     0.3560    -0.8600 o          1 3KL      -0.743000
     27 OT2          6.9010    -1.2710    -1.5920 o          1 3KL      -0.743000
     28 H1          -3.6610     1.7450    -1.7500 hc         1 3KL       0.067200
     29 H2          -5.1910     2.5800    -1.5220 hc         1 3KL       0.067200
     30 H3          -5.4010    -1.6630    -1.4630 hc         1 3KL       0.067200
     31 H4          -3.8150    -0.9830    -1.7740 hc         1 3KL       0.067200
     32 H5          -5.4280    -0.8210     0.8100 hc         1 3KL       0.042700
     33 H6          -3.7680    -2.2420     1.7920 hc         1 3KL       0.037700
     34 H7          -4.3130    -2.9960     0.3150 hc         1 3KL       0.037700
     35 H8          -3.9020     2.5590     0.5970 hc         1 3KL       0.042700
     36 H9          -5.3950     1.6820     0.7680 hc         1 3KL       0.042700
     37 H10         -1.8370    -3.1070     0.5850 hc         1 3KL       0.040200
     38 H11         -2.2790    -2.2680    -0.8800 hc         1 3KL       0.040200
     39 H12         -1.4180    -1.0280     1.7520 hc         1 3KL       0.048700
     40 H13         -2.2480     0.3360    -0.8280 hc         1 3KL       0.041700
     41 H14         -1.8270     2.4670     0.3130 hc         1 3KL       0.033200
     42 H15         -1.3390     1.6330     1.7630 hc         1 3KL       0.033200
     43 H16          0.0460     1.5750    -0.9610 hc         1 3KL       0.041700
     44 H17          0.6010     2.3730     0.4970 hc         1 3KL       0.041700
     45 H18         -0.2560    -0.8200    -1.0300 hc         1 3KL       0.041700
     46 H19          0.7330    -2.5550     1.2540 hc         1 3KL       0.032700
     47 H20          0.4520    -3.0290    -0.4070 hc         1 3KL       0.032700
     48 H21          2.9020    -1.9600     0.6240 hc         1 3KL       0.053700
     49 H22          2.5280    -2.1290    -1.0730 hc         1 3KL       0.053700
     50 H23          1.8920     0.1190    -1.3150 hc         1 3KL       0.041700
     51 H24          0.1430     0.1740     2.6180 hc         1 3KL       0.029367
     52 H25          1.6200    -0.7240     2.3210 hc         1 3KL       0.029367
     53 H26          1.6410     1.0310     2.3300 hc         1 3KL       0.029367
     54 H27         -3.0740    -0.2770     2.7960 hc         1 3KL       0.033367
     55 H28         -3.3940     1.4460     2.6850 hc         1 3KL       0.033367
     56 H29         -4.7290     0.3060     2.6830 hc         1 3KL       0.033367
     57 H30          3.6080     0.2830     1.1840 hc         1 3KL       0.037700
     58 H31          2.6020     2.5010     0.7430 hc         1 3KL       0.023700
     59 H32          4.2820     2.5380     0.2660 hc         1 3KL       0.023700
     60 H33          3.0290     2.3890    -0.9610 hc         1 3KL       0.023700
     61 H34          4.5490    -1.0710    -0.6950 hc         1 3KL       0.041700
     62 H35          4.3830     0.3000    -1.7600 hc         1 3KL       0.041700
     63 H36          6.0510     1.5600    -0.3920 hc         1 3KL       0.015700
     64 H37          6.0440     0.2980     0.8050 hc         1 3KL       0.015700
@<TRIPOS>BOND
     1     1     2 1   
     2     1     7 1   
     3     1    28 1   
     4     1    29 1   
     5     2     3 2   
     6     2     4 1   
     7     4     5 1   
     8     4    30 1   
     9     4    31 1   
    10     5     6 1   
    11     5    11 1   
    12     5    32 1   
    13     6     8 1   
    14     6    33 1   
    15     6    34 1   
    16     7    11 1   
    17     7    35 1   
    18     7    36 1   
    19     8     9 1   
    20     8    37 1   
    21     8    38 1   
    22     9    10 1   
    23     9    15 1   
    24     9    39 1   
    25    10    11 1   
    26    10    12 1   
    27    10    40 1   
    28    11    20 1   
    29    12    13 1   
    30    12    41 1   
    31    12    42 1   
    32    13    14 1   
    33    13    43 1   
    34    13    44 1   
    35    14    15 1   
    36    14    18 1   
    37    14    19 1   
    38    15    16 1   
    39    15    45 1   
    40    16    17 1   
    41    16    46 1   
    42    16    47 1   
    43    17    18 1   
    44    17    48 1   
    45    17    49 1   
    46    18    21 1   
    47    18    50 1   
    48    19    51 1   
    49    19    52 1   
    50    19    53 1   
    51    20    54 1   
    52    20    55 1   
    53    20    56 1   
    54    21    22 1   
    55    21    23 1   
    56    21    57 1   
    57    22    58 1   
    58    22    59 1   
    59    22    60 1   
    60    23    24 1   
    61    23    61 1   
    62    23    62 1   
    63    24    25 1   
    64    24    63 1   
    65    24    64 1   
    66    25    26 1   
    67    25    27 1   
@<TRIPOS>SUBSTRUCTURE
     1 3KL         1 TEMP              0 ****  ****    0 ROOT
