@<TRIPOS>MOLECULE
3KM
   70    73     1     0     0
SMALL
No Charge or Current Charge


@<TRIPOS>ATOM
      1 N1          -0.3990    -2.6330     0.6030 n7         1 3KM      -0.830300
      2 N3           6.6220    -2.3770    -1.8410 n2         1 3KM      -0.821100
      3 C4          -4.5960     0.3630    -0.3300 ca         1 3KM       0.005000
      4 C5          -4.3270    -0.1580     0.9550 ca         1 3KM      -0.066000
      5 C6          -4.8560     0.4800     2.0930 ca         1 3KM      -0.091000
      6 C7          -4.0670    -0.2730    -1.4670 ca         1 3KM      -0.102000
      7 C8          -3.2500    -1.4070    -1.3290 ca         1 3KM      -0.021000
      8 C10         -3.5230    -1.3050     1.0940 ca         1 3KM       0.009000
      9 C13          1.1120    -0.7740     1.3590 c3         1 3KM       0.174600
     10 C15         -1.0820     1.6420    -2.0290 c6         1 3KM       0.096500
     11 C17         -0.4080     3.8390    -0.9070 c6         1 3KM      -0.057700
     12 C20          4.4930    -1.6080     0.0210 ca         1 3KM      -0.093000
     13 C21          5.8740    -1.4580     0.2970 ca         1 3KM      -0.109900
     14 C22          6.2480    -0.7350     1.4560 ca         1 3KM      -0.130000
     15 C24          3.9090    -0.3890     2.0450 ca         1 3KM      -0.188000
     16 C26          0.5290     5.0840    -0.9840 c3         1 3KM      -0.077400
     17 C1          -5.6470     1.6340     1.9510 ca         1 3KM      -0.115000
     18 O1           2.1910    -1.2840     0.5510 os         1 3KM      -0.334100
     19 S1          -1.8530    -3.3280     0.1480 sy         1 3KM       1.137600
     20 C2          -5.9130     2.1520     0.6720 ca         1 3KM      -0.091000
     21 N2          -0.8800     0.9250    -0.7430 n          1 3KM      -0.398800
     22 O2          -0.0150    -0.9610    -1.7280 o          1 3KM      -0.592100
     23 C3          -5.3890     1.5170    -0.4670 ca         1 3KM      -0.108000
     24 O3          -1.5880    -3.9150    -1.1660 o          1 3KM      -0.532500
     25 N4           8.1610    -2.1900    -0.2130 nv         1 3KM      -1.077200
     26 O4          -2.2740    -4.1340     1.2960 o          1 3KM      -0.532500
     27 N5           1.1420     7.3380    -0.1020 n8         1 3KM      -0.994200
     28 C9          -2.9570    -1.9150    -0.0450 ca         1 3KM      -0.302500
     29 C11         -0.2330    -1.1380     0.6840 c3         1 3KM       0.125500
     30 C12         -0.3430    -0.3910    -0.6920 c          1 3KM       0.584100
     31 C14          3.5160    -1.0880     0.8850 ca         1 3KM       0.132100
     32 C16         -0.1710     2.8890    -2.1120 c6         1 3KM      -0.094900
     33 C18         -0.2500     3.0470     0.4230 c6         1 3KM      -0.094900
     34 C19         -1.1500     1.7880     0.4410 c6         1 3KM       0.096500
     35 C23          5.2740    -0.2120     2.3230 ca         1 3KM      -0.083000
     36 C27          0.2730     6.1630     0.0920 c3         1 3KM       0.149800
     37 H1           0.2060    -2.9850    -0.1410 hn         1 3KM       0.509000
     38 H2           7.5040    -2.4980    -2.3500 hn         1 3KM       0.371400
     39 H3          -4.6540     0.0870     3.0880 ha         1 3KM       0.114000
     40 H4          -4.2740     0.1200    -2.4600 ha         1 3KM       0.121000
     41 H5          -2.8310    -1.8710    -2.2200 ha         1 3KM       0.139000
     42 H6          -3.3110    -1.6990     2.0870 ha         1 3KM       0.131000
     43 H7           1.1410    -1.2160     2.3640 h1         1 3KM       0.048700
     44 H8           1.1870     0.3160     1.4600 h1         1 3KM       0.048700
     45 H9          -0.8840     0.9860    -2.8870 h1         1 3KM       0.055200
     46 H10         -2.1340     1.9540    -2.0990 h1         1 3KM       0.055200
     47 H11         -1.4380     4.2190    -0.9660 hc         1 3KM       0.045700
     48 H12          4.1690    -2.1410    -0.8690 ha         1 3KM       0.155000
     49 H13          7.2960    -0.5630     1.6900 ha         1 3KM       0.121000
     50 H14          3.1790     0.0260     2.7340 ha         1 3KM       0.115000
     51 H15          1.5750     4.7610    -0.9170 hc         1 3KM       0.051700
     52 H16          0.4160     5.5540    -1.9690 hc         1 3KM       0.051700
     53 H17         -6.0530     2.1260     2.8320 ha         1 3KM       0.116000
     54 H18         -6.5240     3.0450     0.5640 ha         1 3KM       0.117000
     55 H19         -5.5990     1.9240    -1.4540 ha         1 3KM       0.120000
     56 H20          8.6880    -2.9200    -0.6770 hn         1 3KM       0.461500
     57 H21          8.2730    -2.1520     0.7940 hn         1 3KM       0.461500
     58 H22          0.9800     8.0030     0.6650 hn         1 3KM       0.392500
     59 H23          2.1200     7.0550     0.0290 hn         1 3KM       0.392500
     60 H25         -1.0150    -0.7440     1.3400 h1         1 3KM       0.088700
     61 H26          0.8790     2.5680    -2.1390 hc         1 3KM       0.053200
     62 H27         -0.3630     3.4180    -3.0560 hc         1 3KM       0.053200
     63 H28          0.7980     2.7480     0.5590 hc         1 3KM       0.053200
     64 H29         -0.5100     3.6800     1.2810 hc         1 3KM       0.053200
     65 H30         -2.2060     2.0960     0.4180 h1         1 3KM       0.055200
     66 H31         -0.9940     1.2640     1.3900 h1         1 3KM       0.055200
     67 H32          5.5790     0.3370     3.2120 ha         1 3KM       0.113000
     68 H33         -0.7750     6.4910     0.0440 h1         1 3KM       0.024700
     69 H34          0.4650     5.7520     1.0920 h1         1 3KM       0.024700
     70 C25          6.8990    -2.0020    -0.6600 ce         1 3KM       0.657800
@<TRIPOS>BOND
     1     1    19 1   
     2     1    29 1   
     3     1    37 1   
     4     2    38 1   
     5     2    70 2   
     6     3     4 ar  
     7     3     6 ar  
     8     3    23 ar  
     9     4     5 ar  
    10     4     8 ar  
    11     5    17 ar  
    12     5    39 1   
    13     6     7 ar  
    14     6    40 1   
    15     7    28 ar  
    16     7    41 1   
    17     8    28 ar  
    18     8    42 1   
    19     9    18 1   
    20     9    29 1   
    21     9    43 1   
    22     9    44 1   
    23    10    21 1   
    24    10    32 1   
    25    10    45 1   
    26    10    46 1   
    27    11    16 1   
    28    11    32 1   
    29    11    33 1   
    30    11    47 1   
    31    12    13 ar  
    32    12    31 ar  
    33    12    48 1   
    34    13    14 ar  
    35    13    70 1   
    36    14    35 ar  
    37    14    49 1   
    38    15    31 ar  
    39    15    35 ar  
    40    15    50 1   
    41    16    36 1   
    42    16    51 1   
    43    16    52 1   
    44    17    20 ar  
    45    17    53 1   
    46    18    31 1   
    47    19    24 2   
    48    19    26 2   
    49    19    28 1   
    50    20    23 ar  
    51    20    54 1   
    52    21    30 1   
    53    21    34 1   
    54    22    30 2   
    55    23    55 1   
    56    25    56 1   
    57    25    57 1   
    58    25    70 1   
    59    27    36 1   
    60    27    58 1   
    61    27    59 1   
    62    29    30 1   
    63    29    60 1   
    64    32    61 1   
    65    32    62 1   
    66    33    34 1   
    67    33    63 1   
    68    33    64 1   
    69    34    65 1   
    70    34    66 1   
    71    35    67 1   
    72    36    68 1   
    73    36    69 1   
@<TRIPOS>SUBSTRUCTURE
     1 3KM         1 TEMP              0 ****  ****    0 ROOT
