@<TRIPOS>MOLECULE
3KM
   70    73     1     0     0
SMALL
abcg2


@<TRIPOS>ATOM
      1 N1          -0.4750    -2.5010     1.0880 n7         1 3KM      -0.830300
      2 N3           5.7300    -1.0830    -2.7280 n2         1 3KM      -0.821100
      3 C4          -4.4380    -0.3470    -1.3550 ca         1 3KM       0.005000
      4 C5          -4.2680    -0.0090     0.0110 ca         1 3KM      -0.066000
      5 C6          -4.7660     1.2260     0.4880 ca         1 3KM      -0.091000
      6 C7          -3.9290    -1.5810    -1.8290 ca         1 3KM      -0.102000
      7 C8          -3.2460    -2.4240    -1.0030 ca         1 3KM      -0.021000
      8 C10         -3.5790    -0.9020     0.8600 ca         1 3KM       0.009000
      9 C13          1.2170    -0.8610     1.7160 c3         1 3KM       0.174600
     10 C15         -1.2570     1.7580    -1.0750 c6         1 3KM       0.096500
     11 C17         -0.2800     3.8310    -0.0160 c6         1 3KM      -0.057700
     12 C20          4.1440    -1.2010    -0.3890 ca         1 3KM      -0.093000
     13 C21          5.5240    -1.0570    -0.3540 ca         1 3KM      -0.109900
     14 C22          6.1480    -0.6790     0.8360 ca         1 3KM      -0.130000
     15 C24          4.0020    -0.6070     1.9430 ca         1 3KM      -0.188000
     16 C26          0.7120     4.9770    -0.1960 c3         1 3KM      -0.077400
     17 C1          -5.3990     2.0910    -0.3620 ca         1 3KM      -0.115000
     18 O1           2.0500    -1.1660     0.6220 os         1 3KM      -0.334100
     19 S1          -2.0130    -3.0520     1.3680 sy         1 3KM       1.137600
     20 C2          -5.5680     1.7560    -1.7210 ca         1 3KM      -0.091000
     21 N2          -0.9010     0.9930     0.1100 n          1 3KM      -0.398800
     22 O2          -0.4850    -0.8890    -1.0650 o          1 3KM      -0.592100
     23 C3          -5.1030     0.5630    -2.2070 ca         1 3KM      -0.108000
     24 O3          -2.0340    -4.4250     0.8930 o          1 3KM      -0.532500
     25 N4           7.6060    -1.6450    -1.4170 nv         1 3KM      -1.077200
     26 O4          -2.3180    -2.7530     2.7570 o          1 3KM      -0.532500
     27 N5           1.5760     7.1250     0.6060 n8         1 3KM      -0.994200
     28 C9          -3.0680    -2.0640     0.3500 ca         1 3KM      -0.302500
     29 C11         -0.2260    -1.0820     1.2890 c3         1 3KM       0.125500
     30 C12         -0.5540    -0.2990     0.0020 c          1 3KM       0.584100
     31 C14          3.3810    -0.9850     0.7550 ca         1 3KM       0.132100
     32 C16         -0.3180     2.9410    -1.2570 c6         1 3KM      -0.094900
     33 C18          0.0210     2.9740     1.2140 c6         1 3KM      -0.094900
     34 C19         -0.9300     1.7880     1.3250 c6         1 3KM       0.096500
     35 C23          5.3820    -0.4550     1.9670 ca         1 3KM      -0.083000
     36 C27          0.6710     6.0230     0.9080 c3         1 3KM       0.149800
     37 H1          -0.1220    -2.8380     0.1950 hn         1 3KM       0.509000
     38 H2           6.3540    -1.2960    -3.5020 hn         1 3KM       0.371400
     39 H3          -4.6360     1.4780     1.5340 ha         1 3KM       0.114000
     40 H4          -4.0740    -1.8450    -2.8690 ha         1 3KM       0.121000
     41 H5          -2.8410    -3.3510    -1.3830 ha         1 3KM       0.139000
     42 H6          -3.4550    -0.6410     1.9030 ha         1 3KM       0.131000
     43 H7           1.4320    -1.5030     2.5760 h1         1 3KM       0.048700
     44 H8           1.3530     0.1790     2.0300 h1         1 3KM       0.048700
     45 H9          -1.2440     1.1050    -1.9430 h1         1 3KM       0.055200
     46 H10         -2.2870     2.1130    -0.9520 h1         1 3KM       0.055200
     47 H11         -1.2820     4.2640     0.1140 hc         1 3KM       0.045700
     48 H12          3.6560    -1.4900    -1.3110 ha         1 3KM       0.155000
     49 H13          7.2190    -0.5360     0.8810 ha         1 3KM       0.121000
     50 H14          3.4390    -0.4280     2.8490 ha         1 3KM       0.115000
     51 H15          1.7250     4.5640    -0.2730 hc         1 3KM       0.051700
     52 H16          0.5090     5.4740    -1.1490 hc         1 3KM       0.051700
     53 H17         -5.7710     3.0380     0.0060 ha         1 3KM       0.116000
     54 H18         -6.0720     2.4490    -2.3820 ha         1 3KM       0.117000
     55 H19         -5.2370     0.3070    -3.2510 ha         1 3KM       0.120000
     56 H20          8.1280    -1.9350    -2.2290 hn         1 3KM       0.461500
     57 H21          7.8470    -2.1510    -0.5810 hn         1 3KM       0.461500
     58 H22          1.5030     7.8250     1.3330 hn         1 3KM       0.392500
     59 H23          2.5310     6.7900     0.6500 hn         1 3KM       0.392500
     60 H25         -0.8350    -0.7550     2.1340 h1         1 3KM       0.088700
     61 H26          0.6890     2.5710    -1.4790 hc         1 3KM       0.053200
     62 H27         -0.6440     3.5180    -2.1260 hc         1 3KM       0.053200
     63 H28          1.0520     2.6030     1.1580 hc         1 3KM       0.053200
     64 H29         -0.0540     3.5620     2.1300 hc         1 3KM       0.053200
     65 H30         -1.9540     2.1460     1.4800 h1         1 3KM       0.055200
     66 H31         -0.6770     1.1930     2.1980 h1         1 3KM       0.055200
     67 H32          5.8610    -0.1510     2.8880 ha         1 3KM       0.113000
     68 H33         -0.3440     6.4250     0.9770 h1         1 3KM       0.024700
     69 H34          0.8800     5.5510     1.8780 h1         1 3KM       0.024700
     70 C25          6.3030    -1.2850    -1.6050 ce         1 3KM       0.657800
@<TRIPOS>BOND
     1     1    19 1   
     2     1    29 1   
     3     1    37 1   
     4     2    38 1   
     5     2    70 2   
     6     3     4 ar  
     7     3     6 ar  
     8     3    23 ar  
     9     4     5 ar  
    10     4     8 ar  
    11     5    17 ar  
    12     5    39 1   
    13     6     7 ar  
    14     6    40 1   
    15     7    28 ar  
    16     7    41 1   
    17     8    28 ar  
    18     8    42 1   
    19     9    18 1   
    20     9    29 1   
    21     9    43 1   
    22     9    44 1   
    23    10    21 1   
    24    10    32 1   
    25    10    45 1   
    26    10    46 1   
    27    11    16 1   
    28    11    32 1   
    29    11    33 1   
    30    11    47 1   
    31    12    13 ar  
    32    12    31 ar  
    33    12    48 1   
    34    13    14 ar  
    35    13    70 1   
    36    14    35 ar  
    37    14    49 1   
    38    15    31 ar  
    39    15    35 ar  
    40    15    50 1   
    41    16    36 1   
    42    16    51 1   
    43    16    52 1   
    44    17    20 ar  
    45    17    53 1   
    46    18    31 1   
    47    19    24 2   
    48    19    26 2   
    49    19    28 1   
    50    20    23 ar  
    51    20    54 1   
    52    21    30 1   
    53    21    34 1   
    54    22    30 2   
    55    23    55 1   
    56    25    56 1   
    57    25    57 1   
    58    25    70 1   
    59    27    36 1   
    60    27    58 1   
    61    27    59 1   
    62    29    30 1   
    63    29    60 1   
    64    32    61 1   
    65    32    62 1   
    66    33    34 1   
    67    33    63 1   
    68    33    64 1   
    69    34    65 1   
    70    34    66 1   
    71    35    67 1   
    72    36    68 1   
    73    36    69 1   
@<TRIPOS>SUBSTRUCTURE
     1 3KM         1 TEMP              0 ****  ****    0 ROOT
