@<TRIPOS>MOLECULE
3KN
   20    21     1     0     0
SMALL
abcg2


@<TRIPOS>ATOM
      1 NAM         -1.4840    -2.2880     0.0200 nv         1 3KN      -1.106000
      2 CAI         -1.8760    -1.0090     0.0170 ca         1 3KN       0.423000
      3 CAH         -3.2440    -0.6730     0.0370 ca         1 3KN      -0.274000
      4 CAL         -3.6280     0.6440     0.0340 ca         1 3KN       0.391900
      5 NAK         -2.7760     1.6750     0.0100 nb         1 3KN      -0.710000
      6 CAJ         -1.4920     1.3690    -0.0090 ca         1 3KN       0.401900
      7 CAG         -0.9630     0.0790    -0.0070 ca         1 3KN      -0.307500
      8 CAE          0.4750    -0.1260    -0.0250 cc         1 3KN       0.513900
      9 SAA          1.6200     1.1980    -0.0390 ss         1 3KN      -0.331800
     10 NAD          1.0660    -1.2750    -0.0300 nd         1 3KN      -0.361000
     11 NAC          2.4120    -1.2280    -0.0380 nd         1 3KN      -0.403000
     12 CAB          2.8680    -0.0120    -0.0470 cc         1 3KN       0.658300
     13 NAF          4.1720     0.3140    -0.1150 nv         1 3KN      -1.038900
     14 H1          -2.1630    -3.0280     0.0320 hn         1 3KN       0.512000
     15 H2          -0.5010    -2.5160    -0.0010 hn         1 3KN       0.512000
     16 H3          -3.9900    -1.4570     0.0560 ha         1 3KN       0.121000
     17 H4          -4.6840     0.8910     0.0500 h4         1 3KN       0.016100
     18 H5          -0.8140     2.2190    -0.0300 h4         1 3KN       0.013100
     19 H6           4.4660     1.2260     0.1910 hn         1 3KN       0.484500
     20 H7           4.8260    -0.4260     0.0890 hn         1 3KN       0.484500
@<TRIPOS>BOND
     1     1     2 1   
     2     1    14 1   
     3     1    15 1   
     4     2     3 ar  
     5     2     7 ar  
     6     3     4 ar  
     7     3    16 1   
     8     4     5 ar  
     9     4    17 1   
    10     5     6 ar  
    11     6     7 ar  
    12     6    18 1   
    13     7     8 1   
    14     8     9 1   
    15     8    10 2   
    16     9    12 1   
    17    10    11 1   
    18    11    12 2   
    19    12    13 1   
    20    13    19 1   
    21    13    20 1   
@<TRIPOS>SUBSTRUCTURE
     1 3KN         1 TEMP              0 ****  ****    0 ROOT
