@<TRIPOS>MOLECULE
3KN
   20    21     1     0     0
SMALL
No Charge or Current Charge


@<TRIPOS>ATOM
      1 NAM         -1.4850    -2.2720     0.2850 nv         1 3KN      -1.106000
      2 CAI         -1.8650    -0.9760     0.1260 ca         1 3KN       0.423000
      3 CAH         -3.2250    -0.6880     0.1560 ca         1 3KN      -0.274000
      4 CAL         -3.6410     0.6350     0.0120 ca         1 3KN       0.391900
      5 NAK         -2.7750     1.6520    -0.1590 nb         1 3KN      -0.710000
      6 CAJ         -1.4570     1.3640    -0.1830 ca         1 3KN       0.401900
      7 CAG         -0.9420     0.0690    -0.0300 ca         1 3KN      -0.307500
      8 CAE          0.5040    -0.1240    -0.1180 cc         1 3KN       0.513900
      9 SAA          1.6110     1.1360     0.3630 ss         1 3KN      -0.331800
     10 NAD          1.0900    -1.2380    -0.5520 nd         1 3KN      -0.361000
     11 NAC          2.4700    -1.1460    -0.5240 nd         1 3KN      -0.403000
     12 CAB          2.8510     0.0280    -0.0750 cc         1 3KN       0.658300
     13 NAF          4.1510     0.3410     0.0420 nv         1 3KN      -1.038900
     14 H1          -2.1860    -3.0010     0.1690 hn         1 3KN       0.512000
     15 H2          -0.5320    -2.5250     0.0270 hn         1 3KN       0.512000
     16 H3          -3.9630    -1.4720     0.2910 ha         1 3KN       0.121000
     17 H4          -4.7000     0.8930     0.0310 h4         1 3KN       0.016100
     18 H5          -0.8020     2.2190    -0.3440 h4         1 3KN       0.013100
     19 H6           4.3820     1.1150     0.6550 hn         1 3KN       0.484500
     20 H7           4.8050    -0.4330     0.0220 hn         1 3KN       0.484500
@<TRIPOS>BOND
     1     1     2 1   
     2     1    14 1   
     3     1    15 1   
     4     2     3 ar  
     5     2     7 ar  
     6     3     4 ar  
     7     3    16 1   
     8     4     5 ar  
     9     4    17 1   
    10     5     6 ar  
    11     6     7 ar  
    12     6    18 1   
    13     7     8 1   
    14     8     9 1   
    15     8    10 2   
    16     9    12 1   
    17    10    11 1   
    18    11    12 2   
    19    12    13 1   
    20    13    19 1   
    21    13    20 1   
@<TRIPOS>SUBSTRUCTURE
     1 3KN         1 TEMP              0 ****  ****    0 ROOT
