@<TRIPOS>MOLECULE
3KO
   70    73     1     0     0
SMALL
abcg2


@<TRIPOS>ATOM
      1 C2          -1.8260     1.9980     1.4130 c2         1 3KO       0.693800
      2 C3          -1.7160     1.3950    -0.7890 c          1 3KO       0.565000
      3 C4          -1.7970     0.1120     0.0260 c5         1 3KO       0.172200
      4 C7           4.3100    -1.0750    -0.1070 c          1 3KO       0.606100
      5 N1          -1.7350     2.4360     0.0850 n          1 3KO      -0.391300
      6 C9          -0.5710    -0.7720    -0.2330 c3         1 3KO      -0.063400
      7 C13          5.4480    -0.5370     0.7360 c3         1 3KO      -0.145400
      8 C10          1.9080    -1.0520    -0.5500 c5         1 3KO       0.102000
      9 C12         -3.0830    -0.6580    -0.3170 c3         1 3KO      -0.079400
     10 C27         -8.1510    -0.4190    -0.7890 c6         1 3KO      -0.072900
     11 C28          8.6800    -0.0880    -1.2240 c5         1 3KO      -0.077900
     12 C29          9.2040    -0.3040     0.2170 c5         1 3KO      -0.077900
     13 C30         -8.3790    -1.5750     0.1780 c6         1 3KO      -0.074400
     14 C26         -7.1900    -2.5290     0.1810 c6         1 3KO      -0.072900
     15 C25         -5.8860    -1.7960     0.4860 c6         1 3KO      -0.071400
     16 C24         -6.8460     0.3080    -0.4850 c6         1 3KO      -0.071400
     17 C23          7.1530    -0.0110    -1.1040 c5         1 3KO      -0.077400
     18 C22          7.9550    -0.3840     1.1060 c5         1 3KO      -0.077400
     19 C14          2.7550     0.3610     1.2190 c5         1 3KO       0.103000
     20 C16          0.7950    -0.1140    -0.0770 c5         1 3KO      -0.080700
     21 C17         -1.6950     3.8300    -0.2810 c3         1 3KO       0.091300
     22 C18          1.2420     0.2380     1.3430 c5         1 3KO      -0.088400
     23 C19         -4.3670     0.1470    -0.1570 c3         1 3KO      -0.075400
     24 C20          6.8280    -0.8050     0.1610 c5         1 3KO      -0.057700
     25 C21         -5.6410    -0.6350    -0.4780 c6         1 3KO      -0.058700
     26 N5          -1.8250     0.6460     1.3650 nu         1 3KO      -0.937400
     27 N6           3.0870    -0.5890     0.1640 n          1 3KO      -0.421800
     28 N8          -1.8830     2.7010     2.4700 n2         1 3KO      -0.880100
     29 O11         -1.6490     1.4700    -1.9960 o          1 3KO      -0.514000
     30 O15          4.4810    -1.9230    -0.9770 o          1 3KO      -0.608100
     31 H1          -0.6310    -1.6350     0.4390 hc         1 3KO       0.060200
     32 H2          -0.6560    -1.1680    -1.2490 hc         1 3KO       0.060200
     33 H3           5.3270     0.5390     0.8940 hc         1 3KO       0.056200
     34 H4           5.3610    -0.9910     1.7310 hc         1 3KO       0.056200
     35 H5           1.6830    -2.0920    -0.2880 h1         1 3KO       0.056200
     36 H6           2.0510    -1.0080    -1.6300 h1         1 3KO       0.056200
     37 H7          -3.0030    -1.0240    -1.3440 hc         1 3KO       0.057700
     38 H8          -3.1010    -1.5420     0.3250 hc         1 3KO       0.057700
     39 H9          -8.1170    -0.8060    -1.8140 hc         1 3KO       0.038950
     40 H10         -8.9890     0.2810    -0.7500 hc         1 3KO       0.038950
     41 H11          9.0970     0.8080    -1.6840 hc         1 3KO       0.040450
     42 H12          8.9670    -0.9270    -1.8610 hc         1 3KO       0.040450
     43 H13          9.7800    -1.2290     0.2790 hc         1 3KO       0.040450
     44 H14          9.8730     0.4960     0.5360 hc         1 3KO       0.040450
     45 H15         -8.5260    -1.1770     1.1880 hc         1 3KO       0.038700
     46 H16         -9.2960    -2.1110    -0.0800 hc         1 3KO       0.038700
     47 H17         -7.3460    -3.3280     0.9100 hc         1 3KO       0.038950
     48 H18         -7.1110    -3.0140    -0.7980 hc         1 3KO       0.038950
     49 H19         -5.9190    -1.4040     1.5110 hc         1 3KO       0.037700
     50 H20         -5.0550    -2.5050     0.4540 hc         1 3KO       0.037700
     51 H21         -6.6830     1.1060    -1.2150 hc         1 3KO       0.037700
     52 H22         -6.9210     0.7960     0.4950 hc         1 3KO       0.037700
     53 H23          6.8360     1.0290    -0.9610 hc         1 3KO       0.042200
     54 H24          6.6380    -0.3850    -1.9880 hc         1 3KO       0.042200
     55 H25          8.0730    -1.0690     1.9480 hc         1 3KO       0.042200
     56 H26          7.7220     0.6010     1.5250 hc         1 3KO       0.042200
     57 H27          3.0420     1.3780     0.9340 h1         1 3KO       0.044700
     58 H28          3.2650     0.1200     2.1520 h1         1 3KO       0.044700
     59 H29          0.8440     0.7900    -0.6950 hc         1 3KO       0.064700
     60 H30         -0.8340     4.3240     0.1680 h1         1 3KO       0.051700
     61 H31         -1.6120     3.9060    -1.3610 h1         1 3KO       0.051700
     62 H32         -2.6040     4.3400     0.0350 h1         1 3KO       0.051700
     63 H33          0.9840    -0.5770     2.0260 hc         1 3KO       0.059200
     64 H34          0.7990     1.1520     1.7340 hc         1 3KO       0.059200
     65 H35         -4.4410     0.5340     0.8640 hc         1 3KO       0.046200
     66 H36         -4.3370     1.0190    -0.8190 hc         1 3KO       0.046200
     67 H37          6.9330    -1.8730    -0.0550 hc         1 3KO       0.071700
     68 H38         -5.5420    -1.0540    -1.4900 hc         1 3KO       0.048700
     69 H39         -1.8610     3.6930     2.2720 hn         1 3KO       0.400400
     70 H41         -1.9830     0.0880     2.1860 hn         1 3KO       0.525000
@<TRIPOS>BOND
     1     1     5 1   
     2     1    26 1   
     3     1    28 2   
     4     2     3 1   
     5     2     5 1   
     6     2    29 2   
     7     3     6 1   
     8     3     9 1   
     9     3    26 1   
    10     4     7 1   
    11     4    27 1   
    12     4    30 2   
    13     5    21 1   
    14     6    20 1   
    15     6    31 1   
    16     6    32 1   
    17     7    24 1   
    18     7    33 1   
    19     7    34 1   
    20     8    20 1   
    21     8    27 1   
    22     8    35 1   
    23     8    36 1   
    24     9    23 1   
    25     9    37 1   
    26     9    38 1   
    27    10    13 1   
    28    10    16 1   
    29    10    39 1   
    30    10    40 1   
    31    11    12 1   
    32    11    17 1   
    33    11    41 1   
    34    11    42 1   
    35    12    18 1   
    36    12    43 1   
    37    12    44 1   
    38    13    14 1   
    39    13    45 1   
    40    13    46 1   
    41    14    15 1   
    42    14    47 1   
    43    14    48 1   
    44    15    25 1   
    45    15    49 1   
    46    15    50 1   
    47    16    25 1   
    48    16    51 1   
    49    16    52 1   
    50    17    24 1   
    51    17    53 1   
    52    17    54 1   
    53    18    24 1   
    54    18    55 1   
    55    18    56 1   
    56    19    22 1   
    57    19    27 1   
    58    19    57 1   
    59    19    58 1   
    60    20    22 1   
    61    20    59 1   
    62    21    60 1   
    63    21    61 1   
    64    21    62 1   
    65    22    63 1   
    66    22    64 1   
    67    23    25 1   
    68    23    65 1   
    69    23    66 1   
    70    24    67 1   
    71    25    68 1   
    72    26    70 1   
    73    28    69 1   
@<TRIPOS>SUBSTRUCTURE
     1 3KO         1 TEMP              0 ****  ****    0 ROOT
