@<TRIPOS>MOLECULE
3KO
   70    73     1     0     0
SMALL
No Charge or Current Charge


@<TRIPOS>ATOM
      1 C2          -1.9480     1.8960     1.6500 c2         1 3KO       0.693800
      2 C3          -1.6770     1.4190    -0.6000 c          1 3KO       0.565000
      3 C4          -1.8190     0.1140     0.2310 c5         1 3KO       0.172200
      4 C7           4.4600    -1.0770     0.0390 c          1 3KO       0.606100
      5 N1          -1.7570     2.3980     0.3730 n          1 3KO      -0.391300
      6 C9          -0.5990    -0.8360    -0.0040 c3         1 3KO      -0.063400
      7 C13          5.6410    -0.2920     0.6490 c3         1 3KO      -0.145400
      8 C10          1.9520    -1.2960    -0.2330 c5         1 3KO       0.102000
      9 C12         -3.1310    -0.6460    -0.1420 c3         1 3KO      -0.079400
     10 C27         -8.2500    -0.3050    -0.9900 c6         1 3KO      -0.072900
     11 C28          8.8610    -0.5130    -1.4710 c5         1 3KO      -0.077900
     12 C29          9.4340    -0.2960    -0.0320 c5         1 3KO      -0.077900
     13 C30         -8.5530    -1.5780    -0.1660 c6         1 3KO      -0.074400
     14 C26         -7.3500    -2.5500    -0.1860 c6         1 3KO      -0.072900
     15 C25         -6.0560    -1.8580     0.3120 c6         1 3KO      -0.071400
     16 C24         -6.9600     0.3910    -0.4880 c6         1 3KO      -0.071400
     17 C23          7.3360    -0.2330    -1.3380 c5         1 3KO      -0.077400
     18 C22          8.2030     0.1110     0.8260 c5         1 3KO      -0.077400
     19 C14          2.8270     0.4930     1.2180 c5         1 3KO       0.103000
     20 C16          0.8420    -0.2470     0.0600 c5         1 3KO      -0.080700
     21 C17         -1.6760     3.8310     0.0280 c3         1 3KO       0.091300
     22 C18          1.3080     0.2880     1.4430 c5         1 3KO      -0.088400
     23 C19         -4.4540     0.1610    -0.0130 c3         1 3KO      -0.075400
     24 C20          7.0550    -0.6580     0.1260 c5         1 3KO      -0.057700
     25 C21         -5.7390    -0.5720    -0.5090 c6         1 3KO      -0.058700
     26 N5          -1.8810     0.5390     1.6590 nu         1 3KO      -0.937400
     27 N6           3.1510    -0.6340     0.3180 n          1 3KO      -0.421800
     28 N8          -2.3770     2.5180     2.6570 n2         1 3KO      -0.880100
     29 O11         -1.5230     1.5950    -1.8030 o          1 3KO      -0.514000
     30 O15          4.6370    -2.0660    -0.6620 o          1 3KO      -0.608100
     31 H1          -0.6690    -1.6750     0.7010 hc         1 3KO       0.060200
     32 H2          -0.7100    -1.2910    -0.9960 hc         1 3KO       0.060200
     33 H3           5.4350     0.7800     0.5500 hc         1 3KO       0.056200
     34 H4           5.5740    -0.4170     1.7360 hc         1 3KO       0.056200
     35 H5           1.7640    -2.2450     0.2880 h1         1 3KO       0.056200
     36 H6           2.0460    -1.5020    -1.3080 h1         1 3KO       0.056200
     37 H7          -3.0580    -0.9980    -1.1790 hc         1 3KO       0.057700
     38 H8          -3.2030    -1.5480     0.4770 hc         1 3KO       0.057700
     39 H9          -8.1400    -0.5670    -2.0510 hc         1 3KO       0.038950
     40 H10         -9.0970     0.3910    -0.9260 hc         1 3KO       0.038950
     41 H11          9.3300     0.1500    -2.2070 hc         1 3KO       0.040450
     42 H12          9.0440    -1.5400    -1.8080 hc         1 3KO       0.040450
     43 H13          9.8870    -1.2210     0.3460 hc         1 3KO       0.040450
     44 H14         10.2150     0.4720    -0.0090 hc         1 3KO       0.040450
     45 H15         -8.7900    -1.3010     0.8710 hc         1 3KO       0.038700
     46 H16         -9.4450    -2.0790    -0.5670 hc         1 3KO       0.038700
     47 H17         -7.5690    -3.4250     0.4410 hc         1 3KO       0.038950
     48 H18         -7.1980    -2.9290    -1.2060 hc         1 3KO       0.038950
     49 H19         -6.1600    -1.6060     1.3760 hc         1 3KO       0.037700
     50 H20         -5.2280    -2.5750     0.2400 hc         1 3KO       0.037700
     51 H21         -6.7560     1.2700    -1.1150 hc         1 3KO       0.037700
     52 H22         -7.1210     0.7670     0.5320 hc         1 3KO       0.037700
     53 H23          7.1100     0.8280    -1.5020 hc         1 3KO       0.042200
     54 H24          6.7490    -0.8050    -2.0660 hc         1 3KO       0.042200
     55 H25          8.3200    -0.1740     1.8780 hc         1 3KO       0.042200
     56 H26          8.0400     1.1960     0.8010 hc         1 3KO       0.042200
     57 H27          3.0340     1.4520     0.7240 h1         1 3KO       0.044700
     58 H28          3.3840     0.4540     2.1630 h1         1 3KO       0.044700
     59 H29          0.9020     0.5530    -0.6870 hc         1 3KO       0.064700
     60 H30         -1.2500     4.3980     0.8660 h1         1 3KO       0.051700
     61 H31         -1.0330     3.9760    -0.8500 h1         1 3KO       0.051700
     62 H32         -2.6800     4.2140    -0.1950 h1         1 3KO       0.051700
     63 H33          1.1210    -0.4440     2.2380 hc         1 3KO       0.059200
     64 H34          0.8160     1.2210     1.7340 hc         1 3KO       0.059200
     65 H35         -4.5910     0.4600     1.0340 hc         1 3KO       0.046200
     66 H36         -4.3480     1.0940    -0.5800 hc         1 3KO       0.046200
     67 H37          7.1820    -1.7410     0.2570 hc         1 3KO       0.071700
     68 H38         -5.5490    -0.8620    -1.5530 hc         1 3KO       0.048700
     69 H39         -2.4580     3.5090     2.4010 hn         1 3KO       0.400400
     70 H41         -2.5460     0.1230     2.3040 hn         1 3KO       0.525000
@<TRIPOS>BOND
     1     1     5 1   
     2     1    26 1   
     3     1    28 2   
     4     2     3 1   
     5     2     5 1   
     6     2    29 2   
     7     3     6 1   
     8     3     9 1   
     9     3    26 1   
    10     4     7 1   
    11     4    27 1   
    12     4    30 2   
    13     5    21 1   
    14     6    20 1   
    15     6    31 1   
    16     6    32 1   
    17     7    24 1   
    18     7    33 1   
    19     7    34 1   
    20     8    20 1   
    21     8    27 1   
    22     8    35 1   
    23     8    36 1   
    24     9    23 1   
    25     9    37 1   
    26     9    38 1   
    27    10    13 1   
    28    10    16 1   
    29    10    39 1   
    30    10    40 1   
    31    11    12 1   
    32    11    17 1   
    33    11    41 1   
    34    11    42 1   
    35    12    18 1   
    36    12    43 1   
    37    12    44 1   
    38    13    14 1   
    39    13    45 1   
    40    13    46 1   
    41    14    15 1   
    42    14    47 1   
    43    14    48 1   
    44    15    25 1   
    45    15    49 1   
    46    15    50 1   
    47    16    25 1   
    48    16    51 1   
    49    16    52 1   
    50    17    24 1   
    51    17    53 1   
    52    17    54 1   
    53    18    24 1   
    54    18    55 1   
    55    18    56 1   
    56    19    22 1   
    57    19    27 1   
    58    19    57 1   
    59    19    58 1   
    60    20    22 1   
    61    20    59 1   
    62    21    60 1   
    63    21    61 1   
    64    21    62 1   
    65    22    63 1   
    66    22    64 1   
    67    23    25 1   
    68    23    65 1   
    69    23    66 1   
    70    24    67 1   
    71    25    68 1   
    72    26    70 1   
    73    28    69 1   
@<TRIPOS>SUBSTRUCTURE
     1 3KO         1 TEMP              0 ****  ****    0 ROOT
