@<TRIPOS>MOLECULE
3KP
   11    10     1     0     0
SMALL
bcc


@<TRIPOS>ATOM
      1 CL          -0.0200    -1.4600    -0.1710 cl         1 3KP      -0.163400
      2 C1           0.0130     0.3050     0.1480 c3         1 3KP       0.035700
      3 CL1         -2.7120     0.3490     0.2980 cl         1 3KP      -0.168900
      4 C2           1.2620     0.9170    -0.4480 c3         1 3KP       0.032000
      5 CL2          2.7370     0.2480     0.3040 cl         1 3KP      -0.168900
      6 C3          -1.2110     0.9620    -0.4510 c3         1 3KP       0.032000
      7 H1           0.0140     0.4300     1.2310 h1         1 3KP       0.098700
      8 H2           1.3220     0.7400    -1.5200 h1         1 3KP       0.075450
      9 H2A          1.2630     1.9900    -0.2660 h1         1 3KP       0.075450
     10 H3          -1.1730     2.0350    -0.2680 h1         1 3KP       0.075450
     11 H3A         -1.2760     0.7870    -1.5230 h1         1 3KP       0.075450
@<TRIPOS>BOND
     1     1     2 1   
     2     2     4 1   
     3     2     6 1   
     4     2     7 1   
     5     3     6 1   
     6     4     5 1   
     7     4     8 1   
     8     4     9 1   
     9     6    10 1   
    10     6    11 1   
@<TRIPOS>SUBSTRUCTURE
     1 3KP         1 TEMP              0 ****  ****    0 ROOT
