@<TRIPOS>MOLECULE
3KP
   11    10     1     0     0
SMALL
No Charge or Current Charge


@<TRIPOS>ATOM
      1 Cl          -0.0200    -1.4990    -0.1720 cl         1 3KP      -0.240000
      2 C1           0.0130     0.3030     0.1240 c3         1 3KP       0.112300
      3 Cl1         -2.7780     0.3380     0.3270 cl         1 3KP      -0.245500
      4 C2           1.3070     0.9240    -0.4470 c3         1 3KP       0.108600
      5 Cl2          2.8030     0.2350     0.3330 cl         1 3KP      -0.245500
      6 C3          -1.2560     0.9710    -0.4490 c3         1 3KP       0.108600
      7 H1           0.0140     0.4410     1.2130 h1         1 3KP       0.098700
      8 H2           1.3760     0.7410    -1.5260 h1         1 3KP       0.075450
      9 H2A          1.3180     2.0060    -0.2690 h1         1 3KP       0.075450
     10 H3          -1.2280     2.0540    -0.2710 h1         1 3KP       0.075450
     11 H3A         -1.3290     0.7910    -1.5290 h1         1 3KP       0.075450
@<TRIPOS>BOND
     1     1     2 1   
     2     2     4 1   
     3     2     6 1   
     4     2     7 1   
     5     3     6 1   
     6     4     5 1   
     7     4     8 1   
     8     4     9 1   
     9     6    10 1   
    10     6    11 1   
@<TRIPOS>SUBSTRUCTURE
     1 3KP         1 TEMP              0 ****  ****    0 ROOT
