@<TRIPOS>MOLECULE
3KQ
   55    57     1     0     0
SMALL
No Charge or Current Charge


@<TRIPOS>ATOM
      1 C1          -2.3570    -2.2010    -0.1690 ca         1 3KQ      -0.013300
      2 C2          -2.0970    -1.6000    -1.4280 ca         1 3KQ       0.075500
      3 C3          -1.1470    -2.1860    -2.2930 ca         1 3KQ       0.351400
      4 C5          -0.6870    -3.8750    -0.7830 ca         1 3KQ       0.351400
      5 C6          -1.6180    -3.3690     0.1500 ca         1 3KQ       0.075500
      6 O25          1.3990    -1.7030     0.5200 o          1 3KQ      -0.573100
      7 C24          1.7800    -0.5920     0.1690 c          1 3KQ       0.612100
      8 N26          3.0710    -0.3750    -0.2630 ns         1 3KQ      -0.509900
      9 C27          4.1040    -1.4060    -0.3410 c3         1 3KQ       0.146300
     10 C28          5.4890    -0.7790    -0.3110 ca         1 3KQ      -0.109300
     11 C33          6.0920    -0.4560     0.9210 ca         1 3KQ      -0.099500
     12 C32          7.3660     0.1370     0.9520 ca         1 3KQ      -0.111500
     13 C31          8.0440     0.4120    -0.2470 ca         1 3KQ      -0.107000
     14 C30          7.4460     0.0950    -1.4790 ca         1 3KQ      -0.111500
     15 C29          6.1720    -0.4990    -1.5110 ca         1 3KQ      -0.099500
     16 C23          0.8820     0.6660     0.1730 c3         1 3KQ       0.093600
     17 C17         -1.4640     1.3110     0.8470 ca         1 3KQ       0.176100
     18 C16         -1.3980     2.6910     0.4690 ca         1 3KQ       0.033100
     19 O20         -0.2220     3.1630    -0.1240 os         1 3KQ      -0.341100
     20 C21          0.0020     4.4970    -0.6200 c3         1 3KQ       0.147900
     21 C15         -2.5440     3.5190     0.7110 ca         1 3KQ       0.164100
     22 O18         -2.5270     4.8650     0.3800 os         1 3KQ      -0.317100
     23 C19         -3.6410     5.7500     0.6020 c3         1 3KQ       0.142900
     24 C14         -3.7040     2.9590     1.2970 ca         1 3KQ      -0.218000
     25 C13         -3.7500     1.6080     1.6480 ca         1 3KQ      -0.031000
     26 C12         -2.6360     0.7910     1.4270 ca         1 3KQ      -0.224600
     27 C10         -2.6950    -0.6570     1.7950 c          1 3KQ       0.598700
     28 O11         -2.1820    -1.0620     2.8310 o          1 3KQ      -0.501100
     29 C9          -3.3830    -1.6080     0.8120 c3         1 3KQ      -0.144100
     30 Cl7         -1.8300    -4.2180     1.6870 cl         1 3KQ      -0.177500
     31 N4          -0.4510    -3.3090    -1.9920 nb         1 3KQ      -0.648000
     32 Cl8         -2.9240    -0.1290    -1.9600 cl         1 3KQ      -0.177500
     33 H1          -0.9390    -1.7380    -3.2640 h4         1 3KQ       0.039100
     34 H2          -0.1130    -4.7720    -0.5530 h4         1 3KQ       0.039100
     35 H3           3.3200     0.5720    -0.5260 hn         1 3KQ       0.312500
     36 H4           3.9970    -2.0980     0.5060 h1         1 3KQ       0.065700
     37 H5           3.9690    -1.9800    -1.2670 h1         1 3KQ       0.065700
     38 H6           5.5700    -0.6610     1.8540 ha         1 3KQ       0.115000
     39 H7           7.8250     0.3870     1.9070 ha         1 3KQ       0.113000
     40 H8           9.0290     0.8730    -0.2220 ha         1 3KQ       0.112000
     41 H9           7.9690     0.3110    -2.4080 ha         1 3KQ       0.113000
     42 H10          5.7150    -0.7380    -2.4690 ha         1 3KQ       0.115000
     43 H11          1.3770     1.4170     0.8020 h1         1 3KQ       0.052200
     44 H12          0.8410     1.0390    -0.8580 h1         1 3KQ       0.052200
     45 H13         -0.0500     5.2340     0.1930 h1         1 3KQ       0.041367
     46 H14          1.0030     4.5690    -1.0680 h1         1 3KQ       0.041367
     47 H15         -0.7300     4.7570    -1.3970 h1         1 3KQ       0.041367
     48 H16         -3.8940     5.8010     1.6700 h1         1 3KQ       0.046700
     49 H17         -3.3910     6.7640     0.2660 h1         1 3KQ       0.046700
     50 H18         -4.5240     5.4160     0.0420 h1         1 3KQ       0.046700
     51 H19         -4.5890     3.5580     1.4900 ha         1 3KQ       0.125000
     52 H20         -4.6540     1.1950     2.0980 ha         1 3KQ       0.115000
     53 H21         -4.1380    -1.0460     0.2540 hc         1 3KQ       0.083700
     54 H22         -3.8860    -2.4020     1.3740 hc         1 3KQ       0.083700
     55 O22         -0.4440     0.3810     0.6690 os         1 3KQ      -0.319100
@<TRIPOS>BOND
     1     1     2 ar  
     2     1     5 ar  
     3     1    29 1   
     4     2     3 ar  
     5     2    32 1   
     6     3    31 ar  
     7     3    33 1   
     8     4     5 ar  
     9     4    31 ar  
    10     4    34 1   
    11     5    30 1   
    12     6     7 2   
    13     7     8 1   
    14     7    16 1   
    15     8     9 1   
    16     8    35 1   
    17     9    10 1   
    18     9    36 1   
    19     9    37 1   
    20    10    11 ar  
    21    10    15 ar  
    22    11    12 ar  
    23    11    38 1   
    24    12    13 ar  
    25    12    39 1   
    26    13    14 ar  
    27    13    40 1   
    28    14    15 ar  
    29    14    41 1   
    30    15    42 1   
    31    16    43 1   
    32    16    44 1   
    33    16    55 1   
    34    17    18 ar  
    35    17    26 ar  
    36    17    55 1   
    37    18    19 1   
    38    18    21 ar  
    39    19    20 1   
    40    20    45 1   
    41    20    46 1   
    42    20    47 1   
    43    21    22 1   
    44    21    24 ar  
    45    22    23 1   
    46    23    48 1   
    47    23    49 1   
    48    23    50 1   
    49    24    25 ar  
    50    24    51 1   
    51    25    26 ar  
    52    25    52 1   
    53    26    27 1   
    54    27    28 2   
    55    27    29 1   
    56    29    53 1   
    57    29    54 1   
@<TRIPOS>SUBSTRUCTURE
     1 3KQ         1 TEMP              0 ****  ****    0 ROOT
