@<TRIPOS>MOLECULE
3KQ
   55    57     1     0     0
SMALL
bcc


@<TRIPOS>ATOM
      1 C1          -2.4390    -2.5870     0.1660 ca         1 3KQ      -0.013300
      2 C2          -2.6360    -3.1070    -1.1100 ca         1 3KQ      -0.081400
      3 C3          -2.3310    -4.4280    -1.3980 ca         1 3KQ       0.416700
      4 C5          -1.6030    -4.7850     0.7260 ca         1 3KQ       0.416700
      5 C6          -1.8850    -3.4740     1.0830 ca         1 3KQ      -0.081400
      6 O25          2.1250     0.6750    -2.2280 o          1 3KQ      -0.573100
      7 C24          2.1640     0.6590    -1.0110 c          1 3KQ       0.679100
      8 N26          3.0070    -0.0950    -0.2880 ns         1 3KQ      -0.576900
      9 C27          4.0140    -0.9610    -0.8540 c3         1 3KQ       0.146300
     10 C28          5.3760    -0.7240    -0.2540 ca         1 3KQ      -0.109300
     11 C33          6.1640    -1.8000     0.1400 ca         1 3KQ      -0.117500
     12 C32          7.4350    -1.5970     0.6640 ca         1 3KQ      -0.129500
     13 C31          7.9290    -0.3080     0.8080 ca         1 3KQ      -0.125000
     14 C30          7.1470     0.7730     0.4210 ca         1 3KQ      -0.129500
     15 C29          5.8800     0.5670    -0.1060 ca         1 3KQ      -0.117500
     16 C23          1.2870     1.5670    -0.1710 c3         1 3KQ       0.070400
     17 C17         -0.9680     2.1790    -0.1710 ca         1 3KQ       0.176100
     18 C16         -1.2040     3.5320     0.0240 ca         1 3KQ       0.033100
     19 O20         -0.3120     4.4470    -0.4250 os         1 3KQ      -0.317900
     20 C21         -0.5600     4.9170    -1.7460 c3         1 3KQ       0.124700
     21 C15         -2.3530     3.9620     0.7080 ca         1 3KQ       0.164100
     22 O18         -2.4940     5.2800     0.8340 os         1 3KQ      -0.293900
     23 C19         -3.6360     5.7810     1.5100 c3         1 3KQ       0.119700
     24 C14         -3.2420     3.0120     1.2050 ca         1 3KQ      -0.236000
     25 C13         -2.9900     1.6680     1.0100 ca         1 3KQ      -0.049000
     26 C12         -1.8570     1.2100     0.3370 ca         1 3KQ      -0.224600
     27 C10         -1.6260    -0.2370     0.1500 c          1 3KQ       0.598700
     28 O11         -0.5840    -0.7000    -0.2600 o          1 3KQ      -0.501100
     29 C9          -2.7760    -1.1740     0.5050 c3         1 3KQ      -0.144100
     30 CL7         -1.5170    -2.9650     2.6900 cl         1 3KQ      -0.085900
     31 N4          -1.8300    -5.2500    -0.4910 nb         1 3KQ      -0.648000
     32 CL8         -3.2510    -2.1060    -2.3730 cl         1 3KQ      -0.085900
     33 H1          -2.4980    -4.8220    -2.3940 h4         1 3KQ       0.039100
     34 H2          -1.1820    -5.4690     1.4530 h4         1 3KQ       0.039100
     35 H3           2.9120    -0.1000     0.7160 hn         1 3KQ       0.312500
     36 H4           3.7300    -2.0080    -0.7190 h1         1 3KQ       0.065700
     37 H5           4.0420    -0.7810    -1.9290 h1         1 3KQ       0.065700
     38 H6           5.7810    -2.8090     0.0370 ha         1 3KQ       0.133000
     39 H7           8.0340    -2.4470     0.9660 ha         1 3KQ       0.131000
     40 H8           8.9150    -0.1450     1.2220 ha         1 3KQ       0.130000
     41 H9           7.5250     1.7820     0.5310 ha         1 3KQ       0.131000
     42 H10          5.2790     1.4200    -0.4010 ha         1 3KQ       0.133000
     43 H11          1.0650     1.1090     0.7970 h1         1 3KQ       0.052200
     44 H12          1.8350     2.4960     0.0280 h1         1 3KQ       0.052200
     45 H13         -1.5440     5.3820    -1.8320 h1         1 3KQ       0.041367
     46 H14          0.1990     5.6650    -1.9660 h1         1 3KQ       0.041367
     47 H15         -0.4820     4.1120    -2.4790 h1         1 3KQ       0.041367
     48 H16         -3.6670     5.4500     2.5500 h1         1 3KQ       0.046700
     49 H17         -3.5520     6.8640     1.4860 h1         1 3KQ       0.046700
     50 H18         -4.5620     5.4860     1.0120 h1         1 3KQ       0.046700
     51 H19         -4.1360     3.3050     1.7370 ha         1 3KQ       0.143000
     52 H20         -3.7070     0.9660     1.4130 ha         1 3KQ       0.133000
     53 H21         -3.6810    -0.8620    -0.0200 hc         1 3KQ       0.083700
     54 H22         -2.9990    -1.0810     1.5690 hc         1 3KQ       0.083700
     55 O22          0.1130     1.8370    -0.9060 os         1 3KQ      -0.295900
@<TRIPOS>BOND
     1     1     2 ar  
     2     1     5 ar  
     3     1    29 1   
     4     2     3 ar  
     5     2    32 1   
     6     3    31 ar  
     7     3    33 1   
     8     4     5 ar  
     9     4    31 ar  
    10     4    34 1   
    11     5    30 1   
    12     6     7 2   
    13     7     8 1   
    14     7    16 1   
    15     8     9 1   
    16     8    35 1   
    17     9    10 1   
    18     9    36 1   
    19     9    37 1   
    20    10    11 ar  
    21    10    15 ar  
    22    11    12 ar  
    23    11    38 1   
    24    12    13 ar  
    25    12    39 1   
    26    13    14 ar  
    27    13    40 1   
    28    14    15 ar  
    29    14    41 1   
    30    15    42 1   
    31    16    43 1   
    32    16    44 1   
    33    16    55 1   
    34    17    18 ar  
    35    17    26 ar  
    36    17    55 1   
    37    18    19 1   
    38    18    21 ar  
    39    19    20 1   
    40    20    45 1   
    41    20    46 1   
    42    20    47 1   
    43    21    22 1   
    44    21    24 ar  
    45    22    23 1   
    46    23    48 1   
    47    23    49 1   
    48    23    50 1   
    49    24    25 ar  
    50    24    51 1   
    51    25    26 ar  
    52    25    52 1   
    53    26    27 1   
    54    27    28 2   
    55    27    29 1   
    56    29    53 1   
    57    29    54 1   
@<TRIPOS>SUBSTRUCTURE
     1 3KQ         1 TEMP              0 ****  ****    0 ROOT
