@<TRIPOS>MOLECULE
3KR
   58    60     1     0     0
SMALL
bcc


@<TRIPOS>ATOM
      1 S1           2.3760     0.0150    -1.8020 sy         1 3KR       1.070300
      2 C2           0.8810    -0.6750    -1.1790 ca         1 3KR      -0.314500
      3 C3          -0.2840     0.0780    -1.1960 ca         1 3KR       0.008000
      4 C4          -1.4630    -0.4640    -0.7130 ca         1 3KR      -0.201500
      5 C5          -1.4650    -1.7640    -0.2150 ca         1 3KR       0.198100
      6 C6          -0.2930    -2.5220    -0.2070 ca         1 3KR      -0.201500
      7 C7           0.8770    -1.9810    -0.6930 ca         1 3KR       0.008000
      8 C8           3.1960     0.8310    -0.3650 c6         1 3KR      -0.187200
      9 C9           2.2870     2.0160    -0.0980 c          1 3KR       0.558500
     10 N10          2.4730     3.1860    -1.0370 ne         1 3KR      -0.002100
     11 O11          1.4860     3.8360    -1.1110 o          1 3KR      -0.085300
     12 O12          3.2090    -1.0680    -2.3060 o          1 3KR      -0.587300
     13 O13          2.0300     1.1230    -2.6970 o          1 3KR      -0.587300
     14 O14          1.5220     2.1080     0.8090 o          1 3KR      -0.448100
     15 C15          3.2890    -0.0670     0.8670 c6         1 3KR      -0.048900
     16 C16          4.4000    -1.1010     0.7840 c6         1 3KR       0.159300
     17 N17          5.6750    -0.4570     0.5380 n3         1 3KR      -0.703600
     18 C18          5.6600     0.2230    -0.7420 c6         1 3KR       0.159300
     19 C19          4.5970     1.3110    -0.7920 c6         1 3KR      -0.048900
     20 C20          6.7790    -1.3930     0.6380 c3         1 3KR       0.168800
     21 C21          8.1240    -0.7280     0.8470 c3         1 3KR       0.138400
     22 O22          8.1350    -0.0630     2.0840 os         1 3KR      -0.391600
     23 C23          9.3500     0.5940     2.3290 c3         1 3KR       0.120700
     24 O24         -2.5620    -2.3710     0.2850 os         1 3KR      -0.241200
     25 C25         -3.7800    -1.7360     0.2110 ca         1 3KR       0.069100
     26 C26         -4.5510    -1.8580    -0.9340 ca         1 3KR      -0.101500
     27 C27         -5.7940    -1.2540    -0.9830 ca         1 3KR      -0.147000
     28 C28         -6.2560    -0.5320     0.1080 ca         1 3KR       0.148100
     29 C29         -5.4880    -0.4080     1.2560 ca         1 3KR      -0.147000
     30 C30         -4.2390    -1.0150     1.2980 ca         1 3KR      -0.101500
     31 O31         -7.5110     0.0130    -0.0740 os         1 3KR      -0.382900
     32 C32         -8.1200     0.7790     0.8370 c3         1 3KR       0.865700
     33 F33         -7.4320     1.8840     1.1280 f          1 3KR      -0.224633
     34 F34         -9.2860     1.1410     0.3290 f          1 3KR      -0.224633
     35 F35         -8.3490     0.1390     1.9840 f          1 3KR      -0.224633
     36 H3          -0.2990     1.0830    -1.5940 ha         1 3KR       0.157500
     37 H4          -2.3620     0.1360    -0.7360 ha         1 3KR       0.155000
     38 H6          -0.3090    -3.5350     0.1730 ha         1 3KR       0.155000
     39 H7           1.7770    -2.5820    -0.6920 ha         1 3KR       0.157500
     40 H15          3.5050     0.5870     1.7150 hc         1 3KR       0.069450
     41 H15A         2.3350    -0.5460     1.0880 hc         1 3KR       0.069450
     42 H16          4.4440    -1.6130     1.7470 h1         1 3KR       0.045450
     43 H16A         4.1730    -1.8720     0.0310 h1         1 3KR       0.045450
     44 H18          6.6190     0.7160    -0.9040 h1         1 3KR       0.045450
     45 H18A         5.5300    -0.4840    -1.5730 h1         1 3KR       0.045450
     46 H19          4.5860     1.7690    -1.7810 hc         1 3KR       0.069450
     47 H19A         4.8850     2.1000    -0.0910 hc         1 3KR       0.069450
     48 H20          6.5920    -2.0600     1.4840 h1         1 3KR       0.042700
     49 H20A         6.8530    -2.0400    -0.2520 h1         1 3KR       0.042700
     50 H21          8.9000    -1.5060     0.8090 h1         1 3KR       0.021200
     51 H21A         8.3520    -0.0290     0.0290 h1         1 3KR       0.021200
     52 H23          9.2800     1.0830     3.3010 h1         1 3KR       0.027033
     53 H23A        10.2010    -0.0980     2.3520 h1         1 3KR       0.027033
     54 H23B         9.5640     1.3600     1.5740 h1         1 3KR       0.027033
     55 H26         -4.1910    -2.4250    -1.7830 ha         1 3KR       0.157000
     56 H27         -6.4070    -1.3430    -1.8700 ha         1 3KR       0.160000
     57 H29         -5.8100     0.1420     2.1280 ha         1 3KR       0.160000
     58 H30         -3.6320    -0.9250     2.1890 ha         1 3KR       0.157000
@<TRIPOS>BOND
     1     1     2 1   
     2     1     8 1   
     3     1    12 2   
     4     1    13 2   
     5     2     3 ar  
     6     2     7 ar  
     7     3     4 ar  
     8     3    36 1   
     9     4     5 ar  
    10     4    37 1   
    11     5     6 ar  
    12     5    24 1   
    13     6     7 ar  
    14     6    38 1   
    15     7    39 1   
    16     8     9 1   
    17     8    15 1   
    18     8    19 1   
    19     9    10 1   
    20     9    14 2   
    21    10    11 2   
    22    15    16 1   
    23    15    40 1   
    24    15    41 1   
    25    16    17 1   
    26    16    42 1   
    27    16    43 1   
    28    17    18 1   
    29    17    20 1   
    30    18    19 1   
    31    18    44 1   
    32    18    45 1   
    33    19    46 1   
    34    19    47 1   
    35    20    21 1   
    36    20    48 1   
    37    20    49 1   
    38    21    22 1   
    39    21    50 1   
    40    21    51 1   
    41    22    23 1   
    42    23    52 1   
    43    23    53 1   
    44    23    54 1   
    45    24    25 1   
    46    25    26 ar  
    47    25    30 ar  
    48    26    27 ar  
    49    26    55 1   
    50    27    28 ar  
    51    27    56 1   
    52    28    29 ar  
    53    28    31 1   
    54    29    30 ar  
    55    29    57 1   
    56    30    58 1   
    57    31    32 1   
    58    32    33 1   
    59    32    34 1   
    60    32    35 1   
@<TRIPOS>SUBSTRUCTURE
     1 3KR         1 TEMP              0 ****  ****    0 ROOT
