@<TRIPOS>MOLECULE
3KR
   58    60     1     0     0
SMALL
No Charge or Current Charge


@<TRIPOS>ATOM
      1 S1           2.4970    -0.2170    -1.8870 sy         1 3KR       1.039500
      2 C2           0.8860    -0.9370    -1.4810 ca         1 3KR      -0.314500
      3 C3          -0.3020    -0.3680    -1.9880 ca         1 3KR       0.026000
      4 C4          -1.5450    -0.9470    -1.6810 ca         1 3KR      -0.183500
      5 C5          -1.6080    -2.0980    -0.8760 ca         1 3KR       0.198100
      6 C6          -0.4260    -2.6880    -0.4050 ca         1 3KR      -0.183500
      7 C7           0.8200    -2.1150    -0.7080 ca         1 3KR       0.026000
      8 C8           3.0140     0.7680    -0.3960 c6         1 3KR      -0.298000
      9 C9           1.9850     1.9210    -0.1680 c          1 3KR       0.558500
     10 N10          2.2320     2.7910     0.9020 ne         1 3KR      -0.002100
     11 O11          1.5640     3.7470     1.3270 o          1 3KR      -0.085300
     12 O12          3.4270    -1.3440    -2.0240 o          1 3KR      -0.516500
     13 O13          2.3240     0.7150    -3.0090 o          1 3KR      -0.516500
     14 O14          1.0030     2.0680    -0.8810 o          1 3KR      -0.448100
     15 C15          3.1230    -0.0930     0.9230 c6         1 3KR      -0.048900
     16 C16          4.3290    -1.0700     0.9660 c6         1 3KR       0.159300
     17 N17          5.6190    -0.3620     0.7540 n3         1 3KR      -0.703600
     18 C18          5.6190     0.3840    -0.5350 c6         1 3KR       0.159300
     19 C19          4.4450     1.3980    -0.6120 c6         1 3KR      -0.048900
     20 C20          6.7870    -1.2790     0.9120 c3         1 3KR       0.168800
     21 C21          8.1990    -0.6250     0.8950 c3         1 3KR       0.161600
     22 O22          8.3090     0.3120     1.9860 os         1 3KR      -0.438000
     23 C23          9.5730     0.9910     2.0610 c3         1 3KR       0.143900
     24 O24         -2.8140    -2.6870    -0.5710 os         1 3KR      -0.241200
     25 C25         -3.9460    -1.9610    -0.2740 ca         1 3KR       0.069100
     26 C26         -5.1930    -2.4390    -0.7070 ca         1 3KR      -0.083500
     27 C27         -6.3640    -1.7220    -0.4060 ca         1 3KR      -0.129000
     28 C28         -6.3030    -0.5290     0.3350 ca         1 3KR       0.148100
     29 C29         -5.0470    -0.0560     0.7830 ca         1 3KR      -0.129000
     30 C30         -3.8750    -0.7740     0.4810 ca         1 3KR      -0.083500
     31 O31         -7.4990     0.1170     0.5900 os         1 3KR      -0.406100
     32 C32         -7.6090     1.3470     1.3330 c3         1 3KR       0.525000
     33 F33         -6.9270     2.3590     0.7470 f          1 3KR      -0.103333
     34 F34         -8.8990     1.7400     1.4150 f          1 3KR      -0.103333
     35 F35         -7.1560     1.2180     2.6020 f          1 3KR      -0.103333
     36 H3          -0.2720     0.5190    -2.6180 ha         1 3KR       0.139500
     37 H4          -2.4550    -0.5050    -2.0750 ha         1 3KR       0.137000
     38 H6          -0.4770    -3.5910     0.1970 ha         1 3KR       0.137000
     39 H7           1.7280    -2.5910    -0.3400 ha         1 3KR       0.139500
     40 H15          3.2360     0.5650     1.7960 hc         1 3KR       0.069450
     41 H15A         2.1920    -0.6440     1.1080 hc         1 3KR       0.069450
     42 H16          4.3320    -1.5600     1.9520 h1         1 3KR       0.045450
     43 H16A         4.1990    -1.8730     0.2290 h1         1 3KR       0.045450
     44 H18          6.5520     0.9550    -0.6440 h1         1 3KR       0.045450
     45 H18A         5.5810    -0.3090    -1.3860 h1         1 3KR       0.045450
     46 H19          4.4870     1.9260    -1.5750 hc         1 3KR       0.069450
     47 H19A         4.6470     2.1650     0.1480 hc         1 3KR       0.069450
     48 H20          6.6950    -1.8220     1.8630 h1         1 3KR       0.042700
     49 H20A         6.7630    -2.0390     0.1190 h1         1 3KR       0.042700
     50 H21          8.9530    -1.4160     0.9970 h1         1 3KR       0.021200
     51 H21A         8.3680    -0.1260    -0.0680 h1         1 3KR       0.021200
     52 H23          9.5840     1.6840     2.9110 h1         1 3KR       0.027033
     53 H23A        10.3940     0.2740     2.1930 h1         1 3KR       0.027033
     54 H23B         9.7600     1.5690     1.1460 h1         1 3KR       0.027033
     55 H26         -5.2500    -3.3620    -1.2790 ha         1 3KR       0.139000
     56 H27         -7.3280    -2.0920    -0.7470 ha         1 3KR       0.142000
     57 H29         -4.9560     0.8560     1.3630 ha         1 3KR       0.142000
     58 H30         -2.9150    -0.4080     0.8390 ha         1 3KR       0.139000
@<TRIPOS>BOND
     1     1     2 1   
     2     1     8 1   
     3     1    12 2   
     4     1    13 2   
     5     2     3 ar  
     6     2     7 ar  
     7     3     4 ar  
     8     3    36 1   
     9     4     5 ar  
    10     4    37 1   
    11     5     6 ar  
    12     5    24 1   
    13     6     7 ar  
    14     6    38 1   
    15     7    39 1   
    16     8     9 1   
    17     8    15 1   
    18     8    19 1   
    19     9    10 1   
    20     9    14 2   
    21    10    11 2   
    22    15    16 1   
    23    15    40 1   
    24    15    41 1   
    25    16    17 1   
    26    16    42 1   
    27    16    43 1   
    28    17    18 1   
    29    17    20 1   
    30    18    19 1   
    31    18    44 1   
    32    18    45 1   
    33    19    46 1   
    34    19    47 1   
    35    20    21 1   
    36    20    48 1   
    37    20    49 1   
    38    21    22 1   
    39    21    50 1   
    40    21    51 1   
    41    22    23 1   
    42    23    52 1   
    43    23    53 1   
    44    23    54 1   
    45    24    25 1   
    46    25    26 ar  
    47    25    30 ar  
    48    26    27 ar  
    49    26    55 1   
    50    27    28 ar  
    51    27    56 1   
    52    28    29 ar  
    53    28    31 1   
    54    29    30 ar  
    55    29    57 1   
    56    30    58 1   
    57    31    32 1   
    58    32    33 1   
    59    32    34 1   
    60    32    35 1   
@<TRIPOS>SUBSTRUCTURE
     1 3KR         1 TEMP              0 ****  ****    0 ROOT
