@<TRIPOS>MOLECULE
3KS
   55    54     1     0     0
SMALL
No Charge or Current Charge


@<TRIPOS>ATOM
      1 C15         -5.5640     3.4390     0.5910 c          1 3KS       0.598100
      2 O8          -6.2760     3.5820    -0.3930 o          1 3KS      -0.644100
      3 C16         -5.6260     4.3750     1.7930 c3         1 3KS      -0.177100
      4 N3          -4.6510     2.4160     0.7060 ns         1 3KS      -0.474900
      5 C1          -4.3900     1.3790    -0.3180 c3         1 3KS       0.015700
      6 C2          -3.7050     0.1410     0.3300 c          1 3KS       0.591100
      7 O7          -3.2870     0.1380     1.4840 o          1 3KS      -0.655100
      8 C           -3.5470     1.9560    -1.4810 c3         1 3KS      -0.103100
      9 N           -3.6110    -0.9660    -0.4910 ns         1 3KS      -0.425900
     10 C3          -2.9620    -2.2520    -0.1370 c3         1 3KS      -0.050300
     11 C4          -3.8150    -3.4460    -0.6650 c          1 3KS       0.719000
     12 O1          -4.1760    -3.4320    -1.8350 o          1 3KS      -0.732000
     13 C5          -1.5020    -2.3290    -0.6570 c3         1 3KS      -0.066400
     14 C6          -0.5580    -1.2410    -0.0860 c3         1 3KS      -0.156400
     15 C7           0.8890    -1.4510    -0.5530 c          1 3KS       0.600100
     16 O6           1.2510    -1.2070    -1.6970 o          1 3KS      -0.649100
     17 O           -4.1620    -4.3050     0.1330 o          1 3KS      -0.732000
     18 C9           3.5990    -3.5150     0.9280 c          1 3KS       0.717000
     19 C8           3.1990    -2.1690     0.2440 c3         1 3KS      -0.032300
     20 C10          4.0680    -0.9920     0.7640 c3         1 3KS      -0.076400
     21 C11          3.8510     0.3490     0.0220 c3         1 3KS      -0.075400
     22 C12          4.8030     1.4690     0.5130 c3         1 3KS      -0.053400
     23 C13          4.6600     2.8190    -0.2420 c3         1 3KS       0.015500
     24 C14          5.9120     3.7470     0.0540 c          1 3KS       0.690000
     25 O3           3.2690    -3.7030     2.0920 o          1 3KS      -0.738000
     26 O2           4.1540    -4.3670     0.2470 o          1 3KS      -0.738000
     27 O5           5.9750     4.3200     1.1350 o          1 3KS      -0.753500
     28 O4           6.7120     3.9490    -0.8500 o          1 3KS      -0.753500
     29 N1           1.7480    -1.9140     0.4200 ns         1 3KS      -0.454900
     30 N2           3.3080     3.4400     0.0070 n8         1 3KS      -0.985200
     31 H161        -6.3660     5.1750     1.6700 hc         1 3KS       0.047033
     32 H162        -5.8150     3.7860     2.6970 hc         1 3KS       0.047033
     33 H163        -4.6250     4.7780     1.9840 hc         1 3KS       0.047033
     34 H31         -4.1300     2.3660     1.5750 hn         1 3KS       0.337500
     35 H11         -5.3530     1.0360    -0.7180 h1         1 3KS       0.079700
     36 HC1         -4.0510     2.8120    -1.9430 hc         1 3KS       0.041700
     37 HC2         -2.5660     2.2880    -1.1200 hc         1 3KS       0.041700
     38 HC3         -3.3870     1.2020    -2.2610 hc         1 3KS       0.041700
     39 HN1         -4.0120    -0.8800    -1.4180 hn         1 3KS       0.302500
     40 H32         -2.9420    -2.3410     0.9560 h1         1 3KS       0.061700
     41 H51         -1.0950    -3.3160    -0.4020 hc         1 3KS       0.069700
     42 H52         -1.5030    -2.2670    -1.7530 hc         1 3KS       0.069700
     43 H61         -0.8980    -0.2600    -0.4380 hc         1 3KS       0.033200
     44 H62         -0.6070    -1.2790     1.0090 hc         1 3KS       0.033200
     45 H81          3.4010    -2.2910    -0.8280 h1         1 3KS       0.051700
     46 H101         3.8750    -0.8470     1.8350 hc         1 3KS       0.038200
     47 H102         5.1230    -1.2770     0.6720 hc         1 3KS       0.038200
     48 H111         4.0040     0.1930    -1.0530 hc         1 3KS       0.031200
     49 H112         2.8120     0.6720     0.1570 hc         1 3KS       0.031200
     50 H121         4.6530     1.6320     1.5880 hc         1 3KS       0.033200
     51 H122         5.8350     1.1160     0.3940 hc         1 3KS       0.033200
     52 H131         4.7030     2.5900    -1.3160 h1         1 3KS       0.035700
     53 H12          1.3440    -2.0990     1.3300 hn         1 3KS       0.294500
     54 H21          3.2850     3.7780     0.9760 hn         1 3KS       0.369500
     55 H22          3.2310     4.3030    -0.5450 hn         1 3KS       0.369500
@<TRIPOS>BOND
     1     1     2 2   
     2     1     3 1   
     3     1     4 1   
     4     3    31 1   
     5     3    32 1   
     6     3    33 1   
     7     4     5 1   
     8     4    34 1   
     9     5     6 1   
    10     5     8 1   
    11     5    35 1   
    12     6     7 2   
    13     6     9 1   
    14     8    36 1   
    15     8    37 1   
    16     8    38 1   
    17     9    10 1   
    18     9    39 1   
    19    10    11 1   
    20    10    13 1   
    21    10    40 1   
    22    11    12 1   
    23    11    17 1   
    24    13    14 1   
    25    13    41 1   
    26    13    42 1   
    27    14    15 1   
    28    14    43 1   
    29    14    44 1   
    30    15    16 2   
    31    15    29 1   
    32    18    19 1   
    33    18    25 1   
    34    18    26 1   
    35    19    20 1   
    36    19    29 1   
    37    19    45 1   
    38    20    21 1   
    39    20    46 1   
    40    20    47 1   
    41    21    22 1   
    42    21    48 1   
    43    21    49 1   
    44    22    23 1   
    45    22    50 1   
    46    22    51 1   
    47    23    24 1   
    48    23    30 1   
    49    23    52 1   
    50    24    27 1   
    51    24    28 1   
    52    29    53 1   
    53    30    54 1   
    54    30    55 1   
@<TRIPOS>SUBSTRUCTURE
     1 3KS         1 TEMP              0 ****  ****    0 ROOT
