@<TRIPOS>MOLECULE
3KS
   55    54     1     0     0
SMALL
bcc


@<TRIPOS>ATOM
      1 C15         -6.8600     2.7410    -0.3430 c          1 3KS       0.665100
      2 O8          -6.9010     2.7800    -1.5670 o          1 3KS      -0.644100
      3 C16         -7.9290     3.3810     0.5090 c3         1 3KS      -0.177100
      4 N3          -5.8710     2.1400     0.3350 ns         1 3KS      -0.541900
      5 C1          -4.7470     1.4960    -0.2990 c3         1 3KS       0.015700
      6 C2          -4.1610     0.4900     0.6900 c          1 3KS       0.658100
      7 O7          -4.3620     0.5920     1.8940 o          1 3KS      -0.655100
      8 C           -3.6680     2.4980    -0.7190 c3         1 3KS      -0.103100
      9 N           -3.3670    -0.4320     0.1430 ns         1 3KS      -0.492900
     10 C3          -2.7820    -1.5170     0.8970 c3         1 3KS      -0.050300
     11 C4          -3.7890    -2.6700     1.1630 c          1 3KS       0.929600
     12 O1          -4.8970    -2.6090     0.6080 o          1 3KS      -0.837300
     13 C5          -1.5390    -2.0320     0.1730 c3         1 3KS      -0.066400
     14 C6          -0.4370    -0.9840     0.0650 c3         1 3KS      -0.156400
     15 C7           0.7400    -1.4770    -0.7490 c          1 3KS       0.667100
     16 O6           0.5840    -1.9820    -1.8570 o          1 3KS      -0.649100
     17 O           -3.3670    -3.5650     1.9220 o          1 3KS      -0.837300
     18 C9           3.2740    -3.3210    -0.7530 c          1 3KS       0.927600
     19 C8           3.1600    -1.7760    -0.8170 c3         1 3KS      -0.032300
     20 C10          4.3760    -1.1300    -0.1550 c3         1 3KS      -0.076400
     21 C11          4.4220     0.3900    -0.2690 c3         1 3KS      -0.075400
     22 C12          5.7160     0.9660     0.2900 c3         1 3KS      -0.053400
     23 C13          5.8220     2.4890     0.1920 c3         1 3KS       0.015500
     24 C14          7.2480     2.9310     0.6040 c          1 3KS       0.900600
     25 O3           2.5400    -3.9260     0.0450 o          1 3KS      -0.843300
     26 O2           4.1390    -3.8130    -1.5070 o          1 3KS      -0.843300
     27 O5           7.3750     3.5780     1.6620 o          1 3KS      -0.858800
     28 O4           8.1700     2.5800    -0.1640 o          1 3KS      -0.858800
     29 N1           1.9480    -1.2770    -0.2090 ns         1 3KS      -0.521900
     30 N2           4.7340     3.1140     0.9310 n8         1 3KS      -0.874800
     31 H161        -8.9080     3.0190     0.1950 hc         1 3KS       0.047033
     32 H162        -7.8130     3.1870     1.5730 hc         1 3KS       0.047033
     33 H163        -7.9150     4.4600     0.3520 hc         1 3KS       0.047033
     34 H31         -5.8790     2.1430     1.3430 hn         1 3KS       0.337500
     35 H11         -5.1000     0.9650    -1.1860 h1         1 3KS       0.079700
     36 HC1         -4.0970     3.2590    -1.3690 hc         1 3KS       0.041700
     37 HC2         -3.2360     2.9910     0.1520 hc         1 3KS       0.041700
     38 HC3         -2.8670     2.0040    -1.2680 hc         1 3KS       0.041700
     39 HN1         -3.3850    -0.5300    -0.8610 hn         1 3KS       0.302500
     40 H32         -2.4730    -1.1190     1.8670 h1         1 3KS       0.061700
     41 H51         -1.1680    -2.9000     0.7200 hc         1 3KS       0.069700
     42 H52         -1.8160    -2.3850    -0.8250 hc         1 3KS       0.069700
     43 H61         -0.8190    -0.0870    -0.4320 hc         1 3KS       0.033200
     44 H62         -0.1250    -0.6720     1.0650 hc         1 3KS       0.033200
     45 H81          3.1560    -1.4840    -1.8710 h1         1 3KS       0.051700
     46 H101         4.4130    -1.4220     0.9020 hc         1 3KS       0.038200
     47 H102         5.2680    -1.5560    -0.6180 hc         1 3KS       0.038200
     48 H111         4.3280     0.6740    -1.3240 hc         1 3KS       0.031200
     49 H112         3.5710     0.8410     0.2440 hc         1 3KS       0.031200
     50 H121         5.8230     0.6690     1.3420 hc         1 3KS       0.033200
     51 H122         6.5650     0.5240    -0.2370 hc         1 3KS       0.033200
     52 H131         5.6940     2.7590    -0.8640 h1         1 3KS       0.035700
     53 H12          1.9930    -0.9690     0.7480 hn         1 3KS       0.294500
     54 H21          4.8950     2.9550     1.9200 hn         1 3KS       0.314300
     55 H22          4.8080     4.1190     0.8260 hn         1 3KS       0.314300
@<TRIPOS>BOND
     1     1     2 2   
     2     1     3 1   
     3     1     4 1   
     4     3    31 1   
     5     3    32 1   
     6     3    33 1   
     7     4     5 1   
     8     4    34 1   
     9     5     6 1   
    10     5     8 1   
    11     5    35 1   
    12     6     7 2   
    13     6     9 1   
    14     8    36 1   
    15     8    37 1   
    16     8    38 1   
    17     9    10 1   
    18     9    39 1   
    19    10    11 1   
    20    10    13 1   
    21    10    40 1   
    22    11    12 1   
    23    11    17 1   
    24    13    14 1   
    25    13    41 1   
    26    13    42 1   
    27    14    15 1   
    28    14    43 1   
    29    14    44 1   
    30    15    16 2   
    31    15    29 1   
    32    18    19 1   
    33    18    25 1   
    34    18    26 1   
    35    19    20 1   
    36    19    29 1   
    37    19    45 1   
    38    20    21 1   
    39    20    46 1   
    40    20    47 1   
    41    21    22 1   
    42    21    48 1   
    43    21    49 1   
    44    22    23 1   
    45    22    50 1   
    46    22    51 1   
    47    23    24 1   
    48    23    30 1   
    49    23    52 1   
    50    24    27 1   
    51    24    28 1   
    52    29    53 1   
    53    30    54 1   
    54    30    55 1   
@<TRIPOS>SUBSTRUCTURE
     1 3KS         1 TEMP              0 ****  ****    0 ROOT
