@<TRIPOS>MOLECULE
3KT
   71    74     1     0     0
SMALL
No Charge or Current Charge


@<TRIPOS>ATOM
      1 C12          3.5250     0.9200     0.1820 c6         1 3KT       0.171500
      2 C13          1.1530     1.8300    -0.2820 c6         1 3KT      -0.054700
      3 C3          -0.8230    -0.7060     0.6150 c          1 3KT       0.570000
      4 C1          -0.6390    -1.2510    -1.6300 c2         1 3KT       0.685800
      5 C4          -1.2220     0.4970    -0.2810 c5         1 3KT       0.162200
      6 C7          -0.3810     1.7750     0.0500 c3         1 3KT      -0.060400
      7 N2          -0.5040    -1.6770    -0.3180 n          1 3KT      -0.390300
      8 C9          -2.7360     0.8300    -0.0830 c3         1 3KT      -0.089400
      9 C11         -0.0590    -3.0220     0.0960 c3         1 3KT       0.091300
     10 N6          -0.9760     0.0660    -1.6880 nu         1 3KT      -0.916400
     11 O8          -0.7820    -0.8240     1.8340 o          1 3KT      -0.516000
     12 N10          4.2860    -0.0660     0.9850 n7         1 3KT      -0.863400
     13 C14          2.0150     0.8090     0.5210 c6         1 3KT      -0.068400
     14 C15         -3.7310    -0.3520    -0.2650 c3         1 3KT      -0.077400
     15 C16          5.6550    -0.3490     0.4840 c5         1 3KT       0.171500
     16 C17         -5.2420     0.0240    -0.1750 c6         1 3KT      -0.057700
     17 C18          3.1980     3.3860    -0.3890 c6         1 3KT      -0.067400
     18 C19          4.0320     2.3660     0.4210 c6         1 3KT      -0.109400
     19 C20          1.6940     3.2710    -0.0490 c6         1 3KT      -0.074400
     20 C21          5.5840    -1.2380    -0.7850 c5         1 3KT      -0.079900
     21 C22          6.3230    -1.3410     1.4620 c5         1 3KT      -0.079900
     22 C23         -5.6440     0.5830     1.2230 c6         1 3KT      -0.071900
     23 C24         -6.1310    -1.2000    -0.5380 c6         1 3KT      -0.071900
     24 C25         -7.6390    -0.8560    -0.4710 c6         1 3KT      -0.072900
     25 C26          7.0050    -1.8810    -0.8350 c5         1 3KT      -0.077900
     26 C27          7.5560    -1.7710     0.6250 c5         1 3KT      -0.077900
     27 C28         -7.1540     0.9210     1.2920 c6         1 3KT      -0.072900
     28 C29         -8.0240    -0.3040     0.9220 c6         1 3KT      -0.074400
     29 H1           3.6360     0.6830    -0.8880 h1         1 3KT       0.058700
     30 H2           1.2520     1.6010    -1.3520 hc         1 3KT       0.059700
     31 H3          -0.5120     2.0070     1.1140 hc         1 3KT       0.053200
     32 H4          -0.8500     2.6150    -0.4770 hc         1 3KT       0.053200
     33 H5          -2.8690     1.2350     0.9270 hc         1 3KT       0.056700
     34 H6          -3.0270     1.6340    -0.7710 hc         1 3KT       0.056700
     35 H7          -0.9310    -3.6790     0.2110 h1         1 3KT       0.051700
     36 H8           0.6170    -3.4460    -0.6570 h1         1 3KT       0.051700
     37 H9           0.4780    -2.9680     1.0520 h1         1 3KT       0.051700
     38 H10         -0.5500    -2.9460    -2.3730 hn         1 3KT       0.400400
     39 H12          4.3420     0.2830     1.9480 hn         1 3KT       0.407000
     40 H14          1.7020    -0.2140     0.2910 hc         1 3KT       0.049700
     41 H15          1.8600     0.9560     1.5990 hc         1 3KT       0.049700
     42 H16         -3.5450    -0.8130    -1.2430 hc         1 3KT       0.046700
     43 H17         -3.5080    -1.1260     0.4800 hc         1 3KT       0.046700
     44 H18          6.2610     0.5570     0.3430 h1         1 3KT       0.019700
     45 H19         -5.4140     0.8070    -0.9270 hc         1 3KT       0.043700
     46 H20          3.5500     4.4050    -0.1790 hc         1 3KT       0.039700
     47 H21          3.3500     3.2180    -1.4640 hc         1 3KT       0.039700
     48 H22          3.9780     2.6120     1.4910 hc         1 3KT       0.038700
     49 H23          5.0860     2.4590     0.1300 hc         1 3KT       0.038700
     50 H24          1.1310     3.9870    -0.6640 hc         1 3KT       0.037700
     51 H25          1.5320     3.5660     0.9970 hc         1 3KT       0.037700
     52 H26          4.8110    -2.0110    -0.6950 hc         1 3KT       0.046200
     53 H27          5.3630    -0.6630    -1.6910 hc         1 3KT       0.046200
     54 H28          6.6080    -0.8710     2.4110 hc         1 3KT       0.046200
     55 H29          5.6780    -2.1970     1.6960 hc         1 3KT       0.046200
     56 H30         -5.3950    -0.1490     2.0030 hc         1 3KT       0.039450
     57 H31         -5.0720     1.4910     1.4520 hc         1 3KT       0.039450
     58 H32         -5.8850    -1.5570    -1.5480 hc         1 3KT       0.039450
     59 H33         -5.9160    -2.0330     0.1460 hc         1 3KT       0.039450
     60 H34         -7.8850    -0.1140    -1.2440 hc         1 3KT       0.038450
     61 H35         -8.2360    -1.7500    -0.6950 hc         1 3KT       0.038450
     62 H36          6.9560    -2.9220    -1.1740 hc         1 3KT       0.042950
     63 H37          8.3490    -1.0160     0.6840 hc         1 3KT       0.042950
     64 H38         -7.4120     1.2690     2.3010 hc         1 3KT       0.038450
     65 H39         -7.3780     1.7530     0.6090 hc         1 3KT       0.038450
     66 H40         -9.0870    -0.0240     0.9330 hc         1 3KT       0.038700
     67 H41         -7.9000    -1.0900     1.6800 hc         1 3KT       0.038700
     68 H11         -1.6440     0.2660    -2.4250 hn         1 3KT       0.515000
     69 H13          7.6590    -1.3500    -1.5370 hc         1 3KT       0.042950
     70 H42          7.9870    -2.7140     0.9800 hc         1 3KT       0.042950
     71 N5          -0.7220    -1.9740    -2.6580 n2         1 3KT      -0.875100
@<TRIPOS>BOND
     1     1    12 1   
     2     1    13 1   
     3     1    18 1   
     4     1    29 1   
     5     2     6 1   
     6     2    13 1   
     7     2    19 1   
     8     2    30 1   
     9     3     5 1   
    10     3     7 1   
    11     3    11 2   
    12     4     7 1   
    13     4    10 1   
    14     4    71 2   
    15     5     6 1   
    16     5     8 1   
    17     5    10 1   
    18     6    31 1   
    19     6    32 1   
    20     7     9 1   
    21     8    14 1   
    22     8    33 1   
    23     8    34 1   
    24     9    35 1   
    25     9    36 1   
    26     9    37 1   
    27    10    68 1   
    28    12    15 1   
    29    12    39 1   
    30    13    40 1   
    31    13    41 1   
    32    14    16 1   
    33    14    42 1   
    34    14    43 1   
    35    15    20 1   
    36    15    21 1   
    37    15    44 1   
    38    16    22 1   
    39    16    23 1   
    40    16    45 1   
    41    17    18 1   
    42    17    19 1   
    43    17    46 1   
    44    17    47 1   
    45    18    48 1   
    46    18    49 1   
    47    19    50 1   
    48    19    51 1   
    49    20    25 1   
    50    20    52 1   
    51    20    53 1   
    52    21    26 1   
    53    21    54 1   
    54    21    55 1   
    55    22    27 1   
    56    22    56 1   
    57    22    57 1   
    58    23    24 1   
    59    23    58 1   
    60    23    59 1   
    61    24    28 1   
    62    24    60 1   
    63    24    61 1   
    64    25    26 1   
    65    25    62 1   
    66    25    69 1   
    67    26    63 1   
    68    26    70 1   
    69    27    28 1   
    70    27    64 1   
    71    27    65 1   
    72    28    66 1   
    73    28    67 1   
    74    38    71 1   
@<TRIPOS>SUBSTRUCTURE
     1 3KT         1 TEMP              0 ****  ****    0 ROOT
