@<TRIPOS>MOLECULE
3KT
   71    74     1     0     0
SMALL
bcc


@<TRIPOS>ATOM
      1 C12          3.4690     1.0230     0.1340 c6         1 3KT       0.171500
      2 C13          1.0980     1.8540    -0.2850 c6         1 3KT      -0.054700
      3 C3          -0.7580    -0.6450     0.6970 c          1 3KT       0.712500
      4 C1          -0.5430    -1.3300    -1.4730 c2         1 3KT       0.685800
      5 C4          -1.1650     0.5220    -0.1890 c5         1 3KT       0.162200
      6 C7          -0.3740     1.8040     0.1180 c3         1 3KT      -0.060400
      7 N2          -0.4280    -1.6810    -0.1230 n          1 3KT      -0.457300
      8 C9          -2.6650     0.7990     0.0240 c3         1 3KT      -0.089400
      9 C11          0.0090    -2.9820     0.3160 c3         1 3KT       0.091300
     10 N6          -0.8780    -0.0140    -1.4990 nu         1 3KT      -0.861200
     11 O8          -0.7570    -0.6610     1.9070 o          1 3KT      -0.591500
     12 N10          4.2290     0.0490     0.9040 n7         1 3KT      -0.808200
     13 C14          1.9940     0.9060     0.5120 c6         1 3KT      -0.068400
     14 C15         -3.5900    -0.3940    -0.1910 c3         1 3KT      -0.077400
     15 C16          5.6000    -0.1730     0.4680 c5         1 3KT       0.171500
     16 C17         -5.0730    -0.0260    -0.1490 c6         1 3KT      -0.057700
     17 C18          3.0750     3.4180    -0.5350 c6         1 3KT      -0.067400
     18 C19          3.9470     2.4690     0.2780 c6         1 3KT      -0.109400
     19 C20          1.6070     3.2910    -0.1490 c6         1 3KT      -0.074400
     20 C21          5.6500    -0.8070    -0.9380 c5         1 3KT      -0.079900
     21 C22          6.3050    -1.1930     1.3920 c5         1 3KT      -0.079900
     22 C23         -5.5150     0.4620     1.2310 c6         1 3KT      -0.071900
     23 C24         -5.9340    -1.2130    -0.5850 c6         1 3KT      -0.071900
     24 C25         -7.4240    -0.8910    -0.5420 c6         1 3KT      -0.072900
     25 C26          6.7020    -1.9110    -0.8500 c5         1 3KT      -0.077900
     26 C27          6.4870    -2.4610     0.5560 c5         1 3KT      -0.077900
     27 C28         -7.0050     0.7870     1.2780 c6         1 3KT      -0.072900
     28 C29         -7.8480    -0.4060     0.8390 c6         1 3KT      -0.074400
     29 H1           3.5560     0.7420    -0.9230 h1         1 3KT       0.058700
     30 H2           1.1720     1.5760    -1.3440 hc         1 3KT       0.059700
     31 H3          -0.4750     2.0150     1.1880 hc         1 3KT       0.053200
     32 H4          -0.8920     2.6220    -0.3950 hc         1 3KT       0.053200
     33 H5          -2.7860     1.1970     1.0340 hc         1 3KT       0.056700
     34 H6          -2.9500     1.6050    -0.6600 hc         1 3KT       0.056700
     35 H7          -0.6690    -3.7590    -0.0350 h1         1 3KT       0.051700
     36 H8           1.0150    -3.1940    -0.0470 h1         1 3KT       0.051700
     37 H9           0.0210    -3.0000     1.4020 h1         1 3KT       0.051700
     38 H10         -0.1130    -3.0130    -2.2450 hn         1 3KT       0.400400
     39 H12          4.2430     0.3520     1.8730 hn         1 3KT       0.351800
     40 H14          1.7080    -0.1360     0.3580 hc         1 3KT       0.049700
     41 H15          1.8760     1.1120     1.5840 hc         1 3KT       0.049700
     42 H16         -3.3740    -0.8490    -1.1630 hc         1 3KT       0.046700
     43 H17         -3.4020    -1.1660     0.5650 hc         1 3KT       0.046700
     44 H18          6.1870     0.7570     0.4620 h1         1 3KT       0.019700
     45 H19         -5.2390     0.7890    -0.8670 hc         1 3KT       0.043700
     46 H20          3.4100     4.4500    -0.4010 hc         1 3KT       0.039700
     47 H21          3.1910     3.1930    -1.6010 hc         1 3KT       0.039700
     48 H22          3.9080     2.7500     1.3370 hc         1 3KT       0.038700
     49 H23          4.9920     2.5620    -0.0310 hc         1 3KT       0.038700
     50 H24          0.9980     3.9570    -0.7660 hc         1 3KT       0.037700
     51 H25          1.4740     3.6220     0.8880 hc         1 3KT       0.037700
     52 H26          4.6750    -1.2560    -1.1530 hc         1 3KT       0.046200
     53 H27          5.8500    -0.0790    -1.7260 hc         1 3KT       0.046200
     54 H28          7.2830    -0.8060     1.6860 hc         1 3KT       0.046200
     55 H29          5.7430    -1.3680     2.3120 hc         1 3KT       0.046200
     56 H30         -5.2940    -0.3200     1.9680 hc         1 3KT       0.039450
     57 H31         -4.9390     1.3410     1.5330 hc         1 3KT       0.039450
     58 H32         -5.6470    -1.5270    -1.5930 hc         1 3KT       0.039450
     59 H33         -5.7260    -2.0640     0.0770 hc         1 3KT       0.039450
     60 H34         -7.6450    -0.1120    -1.2820 hc         1 3KT       0.038450
     61 H35         -8.0070    -1.7680    -0.8350 hc         1 3KT       0.038450
     62 H36          6.5940    -2.6610    -1.6350 hc         1 3KT       0.042950
     63 H37          7.3050    -3.0910     0.9100 hc         1 3KT       0.042950
     64 H38         -7.2860     1.1010     2.2860 hc         1 3KT       0.038450
     65 H39         -7.2140     1.6370     0.6190 hc         1 3KT       0.038450
     66 H40         -8.9090    -0.1430     0.8420 hc         1 3KT       0.038700
     67 H41         -7.7260    -1.2200     1.5620 hc         1 3KT       0.038700
     68 H11         -1.2590     0.3900    -2.3380 hn         1 3KT       0.459800
     69 H13          7.7090    -1.4920    -0.9380 hc         1 3KT       0.042950
     70 H42          5.5760    -3.0650     0.5770 hc         1 3KT       0.042950
     71 N5          -0.3640    -2.0640    -2.4930 n2         1 3KT      -0.875100
@<TRIPOS>BOND
     1     1    12 1   
     2     1    13 1   
     3     1    18 1   
     4     1    29 1   
     5     2     6 1   
     6     2    13 1   
     7     2    19 1   
     8     2    30 1   
     9     3     5 1   
    10     3     7 1   
    11     3    11 2   
    12     4     7 1   
    13     4    10 1   
    14     4    71 2   
    15     5     6 1   
    16     5     8 1   
    17     5    10 1   
    18     6    31 1   
    19     6    32 1   
    20     7     9 1   
    21     8    14 1   
    22     8    33 1   
    23     8    34 1   
    24     9    35 1   
    25     9    36 1   
    26     9    37 1   
    27    10    68 1   
    28    12    15 1   
    29    12    39 1   
    30    13    40 1   
    31    13    41 1   
    32    14    16 1   
    33    14    42 1   
    34    14    43 1   
    35    15    20 1   
    36    15    21 1   
    37    15    44 1   
    38    16    22 1   
    39    16    23 1   
    40    16    45 1   
    41    17    18 1   
    42    17    19 1   
    43    17    46 1   
    44    17    47 1   
    45    18    48 1   
    46    18    49 1   
    47    19    50 1   
    48    19    51 1   
    49    20    25 1   
    50    20    52 1   
    51    20    53 1   
    52    21    26 1   
    53    21    54 1   
    54    21    55 1   
    55    22    27 1   
    56    22    56 1   
    57    22    57 1   
    58    23    24 1   
    59    23    58 1   
    60    23    59 1   
    61    24    28 1   
    62    24    60 1   
    63    24    61 1   
    64    25    26 1   
    65    25    62 1   
    66    25    69 1   
    67    26    63 1   
    68    26    70 1   
    69    27    28 1   
    70    27    64 1   
    71    27    65 1   
    72    28    66 1   
    73    28    67 1   
    74    38    71 1   
@<TRIPOS>SUBSTRUCTURE
     1 3KT         1 TEMP              0 ****  ****    0 ROOT
