@<TRIPOS>MOLECULE
3KU
   69    72     1     0     0
SMALL
No Charge or Current Charge


@<TRIPOS>ATOM
      1 C1          21.5440    11.0080    23.8790 c          1 3KU       0.561000
      2 C2          21.0290    10.4830    22.5120 c5         1 3KU       0.173200
      3 N3          21.3060     9.0170    22.5010 nu         1 3KU      -0.940400
      4 C4          21.8660     8.7190    23.7030 c2         1 3KU       0.693800
      5 N5          21.9830     9.8500    24.4960 n          1 3KU      -0.394300
      6 O6          21.5840    12.1420    24.3440 o          1 3KU      -0.517000
      7 C7          19.4850    10.7000    22.3940 c3         1 3KU      -0.072400
      8 C8          23.2780    11.4720    21.3320 c6         1 3KU      -0.054700
      9 C9          18.6180    10.1130    23.5450 c3         1 3KU      -0.076400
     10 C10         17.0750    10.2510    23.3610 c6         1 3KU      -0.058700
     11 C11         23.6750    12.3850    20.1340 c6         1 3KU      -0.091400
     12 C12         25.1890    12.7220    20.1290 c6         1 3KU       0.109700
     13 C13         26.0120    11.4130    20.0870 c6         1 3KU      -0.087400
     14 C14         25.6560    10.4960    21.2800 c6         1 3KU      -0.070400
     15 C15         24.1420    10.1770    21.3140 c6         1 3KU      -0.074400
     16 C16         16.3210     9.4790    24.4820 c6         1 3KU      -0.071900
     17 C17         14.7850     9.5850    24.3200 c6         1 3KU      -0.072900
     18 C18         14.3280    11.0620    24.2830 c6         1 3KU      -0.075400
     19 C19         15.0630    11.8410    23.1660 c6         1 3KU      -0.072900
     20 C20         16.6010    11.7350    23.3200 c6         1 3KU      -0.071900
     21 N21         22.4380     7.6100    23.8760 n2         1 3KU      -0.878100
     22 N22         25.5260    13.5630    18.9740 ns         1 3KU      -0.498900
     23 C23         25.3680    14.9310    18.9020 c          1 3KU       0.607700
     24 C24         21.7320    11.2040    21.3120 c3         1 3KU      -0.075400
     25 C25         22.5720     9.8790    25.8500 c3         1 3KU       0.093300
     26 O26         24.9350    15.5710    19.8520 o          1 3KU      -0.596100
     27 C27         25.7590    15.5920    17.5950 ca         1 3KU      -0.109600
     28 C28         25.6300    16.9900    17.4370 ca         1 3KU      -0.130000
     29 C29         25.9940    17.5950    16.2220 ca         1 3KU       0.327900
     30 C30         26.2620    14.8720    16.4840 ca         1 3KU      -0.130000
     31 C31         26.6020    15.5600    15.3050 ca         1 3KU       0.327900
     32 N32         26.4740    16.9000    15.1670 nb         1 3KU      -0.651000
     33 H1          19.2890    11.7770    22.3400 hc         1 3KU       0.055700
     34 H2          19.1320    10.2790    21.4450 hc         1 3KU       0.055700
     35 H3          23.4970    12.0230    22.2570 hc         1 3KU       0.057700
     36 H4          18.8610     9.0480    23.6490 hc         1 3KU       0.048700
     37 H5          18.9120    10.5830    24.4910 hc         1 3KU       0.048700
     38 H6          16.8330     9.7800    22.3980 hc         1 3KU       0.041700
     39 H7          23.0980    13.3190    20.1750 hc         1 3KU       0.049200
     40 H8          23.4030    11.8960    19.1880 hc         1 3KU       0.049200
     41 H9          25.4400    13.2710    21.0490 h1         1 3KU       0.084700
     42 H10         25.8270    10.8790    19.1440 hc         1 3KU       0.044200
     43 H11         27.0860    11.6460    20.1110 hc         1 3KU       0.044200
     44 H12         26.2310     9.5620    21.2170 hc         1 3KU       0.047200
     45 H13         25.9530    10.9810    22.2210 hc         1 3KU       0.047200
     46 H14         23.8750     9.5590    20.4450 hc         1 3KU       0.042200
     47 H15         23.9460     9.5720    22.2050 hc         1 3KU       0.042200
     48 H16         16.6150     8.4200    24.4700 hc         1 3KU       0.039450
     49 H17         16.6130     9.8710    25.4660 hc         1 3KU       0.039450
     50 H18         14.2860     9.0610    25.1460 hc         1 3KU       0.038200
     51 H19         14.4740     9.0770    23.3960 hc         1 3KU       0.038200
     52 H20         14.5240    11.5350    25.2550 hc         1 3KU       0.039200
     53 H21         13.2430    11.1140    24.1230 hc         1 3KU       0.039200
     54 H22         14.7580    12.8960    23.1860 hc         1 3KU       0.038200
     55 H23         14.7630    11.4490    22.1840 hc         1 3KU       0.038200
     56 H24         17.0720    12.2670    22.4840 hc         1 3KU       0.039450
     57 H25         16.9150    12.2530    24.2370 hc         1 3KU       0.039450
     58 H26         22.9070     7.6390    24.7890 hn         1 3KU       0.397400
     59 H28         25.8920    13.1080    18.1490 hn         1 3KU       0.312500
     60 H29         21.2540    12.1860    21.2040 hc         1 3KU       0.058700
     61 H30         21.4760    10.6730    20.3870 hc         1 3KU       0.058700
     62 H31         22.3570     8.9400    26.3750 h1         1 3KU       0.053367
     63 H32         23.6580    10.0130    25.7770 h1         1 3KU       0.053367
     64 H33         22.1470    10.7060    26.4330 h1         1 3KU       0.053367
     65 H34         25.2510    17.6120    18.2440 ha         1 3KU       0.133500
     66 H35         25.8990    18.6730    16.0900 h4         1 3KU       0.023600
     67 H36         26.3960    13.7950    16.5070 ha         1 3KU       0.133500
     68 H37         26.9890    15.0200    14.4430 h4         1 3KU       0.023600
     69 H38         21.7860     8.5730    21.7240 hn         1 3KU       0.526000
@<TRIPOS>BOND
     1     1     2 1   
     2     1     5 1   
     3     1     6 2   
     4     2     3 1   
     5     2     7 1   
     6     2    24 1   
     7     3     4 1   
     8     3    69 1   
     9     4     5 1   
    10     4    21 2   
    11     5    25 1   
    12     7     9 1   
    13     7    33 1   
    14     7    34 1   
    15     8    11 1   
    16     8    15 1   
    17     8    24 1   
    18     8    35 1   
    19     9    10 1   
    20     9    36 1   
    21     9    37 1   
    22    10    16 1   
    23    10    20 1   
    24    10    38 1   
    25    11    12 1   
    26    11    39 1   
    27    11    40 1   
    28    12    13 1   
    29    12    22 1   
    30    12    41 1   
    31    13    14 1   
    32    13    42 1   
    33    13    43 1   
    34    14    15 1   
    35    14    44 1   
    36    14    45 1   
    37    15    46 1   
    38    15    47 1   
    39    16    17 1   
    40    16    48 1   
    41    16    49 1   
    42    17    18 1   
    43    17    50 1   
    44    17    51 1   
    45    18    19 1   
    46    18    52 1   
    47    18    53 1   
    48    19    20 1   
    49    19    54 1   
    50    19    55 1   
    51    20    56 1   
    52    20    57 1   
    53    21    58 1   
    54    22    23 1   
    55    22    59 1   
    56    23    26 2   
    57    23    27 1   
    58    24    60 1   
    59    24    61 1   
    60    25    62 1   
    61    25    63 1   
    62    25    64 1   
    63    27    28 ar  
    64    27    30 ar  
    65    28    29 ar  
    66    28    65 1   
    67    29    32 ar  
    68    29    66 1   
    69    30    31 ar  
    70    30    67 1   
    71    31    32 ar  
    72    31    68 1   
@<TRIPOS>SUBSTRUCTURE
     1 3KU         1 TEMP              0 ****  ****    0 ROOT
