@<TRIPOS>MOLECULE
3KU
   69    72     1     0     0
SMALL
abcg2


@<TRIPOS>ATOM
      1 C1          21.3950    11.6530    23.4920 c          1 3KU       0.561000
      2 C2          20.9090    10.6910    22.4040 c5         1 3KU       0.173200
      3 N3          21.4560     9.4380    22.8940 nu         1 3KU      -0.940400
      4 C4          22.1710     9.5610    24.0370 c2         1 3KU       0.693800
      5 N5          22.1120    10.9240    24.3950 n          1 3KU      -0.394300
      6 O6          21.1850    12.8520    23.5400 o          1 3KU      -0.517000
      7 C7          19.3710    10.6690    22.3440 c3         1 3KU      -0.072400
      8 C8          23.0140    11.1130    20.9150 c6         1 3KU      -0.054700
      9 C9          18.6830    10.3540    23.6700 c3         1 3KU      -0.076400
     10 C10         17.1790    10.0950    23.5400 c6         1 3KU      -0.058700
     11 C11         23.4800    12.2340    19.9790 c6         1 3KU      -0.091400
     12 C12         25.0020    12.2560    19.8160 c6         1 3KU       0.109700
     13 C13         25.5320    10.9070    19.3350 c6         1 3KU      -0.087400
     14 C14         25.0770     9.7840    20.2660 c6         1 3KU      -0.070400
     15 C15         23.5580     9.7650    20.4230 c6         1 3KU      -0.074400
     16 C16         16.5960     9.5910    24.8650 c6         1 3KU      -0.071900
     17 C17         15.0950     9.3110    24.7690 c6         1 3KU      -0.072900
     18 C18         14.3290    10.5410    24.2780 c6         1 3KU      -0.075400
     19 C19         14.8990    11.0530    22.9550 c6         1 3KU      -0.072900
     20 C20         16.4020    11.3250    23.0560 c6         1 3KU      -0.071900
     21 N21         22.7740     8.6160    24.6550 n2         1 3KU      -0.878100
     22 N22         25.4150    13.3110    18.8980 ns         1 3KU      -0.498900
     23 C23         25.8520    14.5190    19.2900 c          1 3KU       0.607700
     24 C24         21.4820    11.1240    21.0400 c3         1 3KU      -0.075400
     25 C25         22.7550    11.4710    25.5720 c3         1 3KU       0.093300
     26 O26         25.9520    14.8620    20.4700 o          1 3KU      -0.596100
     27 C27         26.2330    15.4680    18.1870 ca         1 3KU      -0.109600
     28 C28         26.0960    16.8370    18.4020 ca         1 3KU      -0.130000
     29 C29         26.4570    17.7150    17.3900 ca         1 3KU       0.327900
     30 C30         26.7490    15.0480    16.9640 ca         1 3KU      -0.130000
     31 C31         27.0950    16.0050    16.0180 ca         1 3KU       0.327900
     32 N32         26.9510    17.3190    16.2120 nb         1 3KU      -0.651000
     33 H1          19.0450    11.6370    21.9600 hc         1 3KU       0.055700
     34 H2          19.0910     9.9200    21.5970 hc         1 3KU       0.055700
     35 H3          23.4540    11.3110    21.9000 hc         1 3KU       0.057700
     36 H4          19.1480     9.4670    24.1110 hc         1 3KU       0.048700
     37 H5          18.8420    11.1760    24.3770 hc         1 3KU       0.048700
     38 H6          17.0440     9.2990    22.7940 hc         1 3KU       0.041700
     39 H7          23.1450    13.2010    20.3620 hc         1 3KU       0.049200
     40 H8          23.0210    12.1000    18.9930 hc         1 3KU       0.049200
     41 H9          25.4540    12.4950    20.7790 h1         1 3KU       0.084700
     42 H10         25.1550    10.7200    18.3230 hc         1 3KU       0.044200
     43 H11         26.6220    10.9440    19.2740 hc         1 3KU       0.044200
     44 H12         25.4280     8.8220    19.8840 hc         1 3KU       0.047200
     45 H13         25.5400     9.9200    21.2500 hc         1 3KU       0.047200
     46 H14         23.0950     9.5400    19.4540 hc         1 3KU       0.042200
     47 H15         23.2650     8.9680    21.1070 hc         1 3KU       0.042200
     48 H16         17.1290     8.6890    25.1790 hc         1 3KU       0.039450
     49 H17         16.7740    10.3470    25.6390 hc         1 3KU       0.039450
     50 H18         14.7100     8.9860    25.7390 hc         1 3KU       0.038200
     51 H19         14.9290     8.4830    24.0700 hc         1 3KU       0.038200
     52 H20         14.4020    11.3330    25.0320 hc         1 3KU       0.039200
     53 H21         13.2660    10.3070    24.1680 hc         1 3KU       0.039200
     54 H22         14.3750    11.9600    22.6430 hc         1 3KU       0.038200
     55 H23         14.7230    10.3040    22.1740 hc         1 3KU       0.038200
     56 H24         16.7810    11.6590    22.0870 hc         1 3KU       0.039450
     57 H25         16.5760    12.1470    23.7620 hc         1 3KU       0.039450
     58 H26         23.2380     8.9580    25.4910 hn         1 3KU       0.397400
     59 H28         25.2670    13.1460    17.9130 hn         1 3KU       0.312500
     60 H29         21.1050    12.1330    20.8600 hc         1 3KU       0.058700
     61 H30         21.0440    10.4830    20.2700 hc         1 3KU       0.058700
     62 H31         22.3550    11.0090    26.4750 h1         1 3KU       0.053367
     63 H32         23.8320    11.3080    25.5280 h1         1 3KU       0.053367
     64 H33         22.5530    12.5390    25.5920 h1         1 3KU       0.053367
     65 H34         25.7110    17.2070    19.3420 ha         1 3KU       0.133500
     66 H35         26.3460    18.7840    17.5330 h4         1 3KU       0.023600
     67 H36         26.9090    14.0010    16.7430 ha         1 3KU       0.133500
     68 H37         27.5090    15.6990    15.0640 h4         1 3KU       0.023600
     69 H38         21.3490     8.5560    22.4250 hn         1 3KU       0.526000
@<TRIPOS>BOND
     1     1     2 1   
     2     1     5 1   
     3     1     6 2   
     4     2     3 1   
     5     2     7 1   
     6     2    24 1   
     7     3     4 1   
     8     3    69 1   
     9     4     5 1   
    10     4    21 2   
    11     5    25 1   
    12     7     9 1   
    13     7    33 1   
    14     7    34 1   
    15     8    11 1   
    16     8    15 1   
    17     8    24 1   
    18     8    35 1   
    19     9    10 1   
    20     9    36 1   
    21     9    37 1   
    22    10    16 1   
    23    10    20 1   
    24    10    38 1   
    25    11    12 1   
    26    11    39 1   
    27    11    40 1   
    28    12    13 1   
    29    12    22 1   
    30    12    41 1   
    31    13    14 1   
    32    13    42 1   
    33    13    43 1   
    34    14    15 1   
    35    14    44 1   
    36    14    45 1   
    37    15    46 1   
    38    15    47 1   
    39    16    17 1   
    40    16    48 1   
    41    16    49 1   
    42    17    18 1   
    43    17    50 1   
    44    17    51 1   
    45    18    19 1   
    46    18    52 1   
    47    18    53 1   
    48    19    20 1   
    49    19    54 1   
    50    19    55 1   
    51    20    56 1   
    52    20    57 1   
    53    21    58 1   
    54    22    23 1   
    55    22    59 1   
    56    23    26 2   
    57    23    27 1   
    58    24    60 1   
    59    24    61 1   
    60    25    62 1   
    61    25    63 1   
    62    25    64 1   
    63    27    28 ar  
    64    27    30 ar  
    65    28    29 ar  
    66    28    65 1   
    67    29    32 ar  
    68    29    66 1   
    69    30    31 ar  
    70    30    67 1   
    71    31    32 ar  
    72    31    68 1   
@<TRIPOS>SUBSTRUCTURE
     1 3KU         1 TEMP              0 ****  ****    0 ROOT
