@<TRIPOS>MOLECULE
3KV
   49    49     1     0     0
SMALL
bcc


@<TRIPOS>ATOM
      1 C4           5.4730    -2.0100    -0.0130 c6         1 3KV      -0.035200
      2 C5           4.1450    -1.4300    -0.4220 c2         1 3KV      -0.119400
      3 C6           3.8150    -0.1460    -0.1900 ce         1 3KV      -0.058200
      4 C7           2.5210     0.4300    -0.5830 ce         1 3KV      -0.168000
      5 C8           1.3170    -0.0690    -0.2620 cf         1 3KV      -0.089000
      6 C10         -1.0880    -0.0690    -0.1330 ce         1 3KV      -0.056000
      7 C13         -4.9000     0.0710     0.0820 ce         1 3KV      -0.158200
      8 C15         -7.3090    -0.5650     0.7930 c          1 3KV       0.905800
      9 C20         -5.2200     1.2970    -0.7200 c3         1 3KV      -0.036900
     10 O1          -7.8320    -1.1770     1.7490 o          1 3KV      -0.824300
     11 O2          -7.9140     0.1100    -0.0660 o          1 3KV      -0.824300
     12 C14         -5.8080    -0.7020     0.7140 cf         1 3KV      -0.137200
     13 C12         -3.4970    -0.2990     0.2140 cf         1 3KV      -0.036000
     14 C11         -2.4500     0.3610    -0.3210 ce         1 3KV      -0.231000
     15 C9           0.0350     0.5290    -0.5980 cf         1 3KV      -0.147200
     16 C19          0.0330     1.7780    -1.4270 c3         1 3KV      -0.035900
     17 C18          3.2430    -2.4230    -1.0980 c3         1 3KV      -0.050900
     18 C3           6.5150    -0.9720     0.3660 c6         1 3KV      -0.070400
     19 C2           5.8810     0.1090     1.2210 c6         1 3KV      -0.067400
     20 C1           4.7600     0.8490     0.4860 c6         1 3KV      -0.000800
     21 C16          5.3550     1.7970    -0.5650 c3         1 3KV      -0.078100
     22 H1           5.3070    -2.7020     0.8230 hc         1 3KV       0.038700
     23 H2           5.8500    -2.6360    -0.8280 hc         1 3KV       0.038700
     24 H5           2.5660     1.3770    -1.1160 ha         1 3KV       0.121000
     25 H6           1.2740    -0.9820     0.3240 ha         1 3KV       0.114000
     26 H7          -0.9610    -0.9710     0.4620 ha         1 3KV       0.106000
     27 H8           3.4630     1.0420     2.2280 hc         1 3KV       0.032700
     28 H9           4.6920     2.3010     2.0910 hc         1 3KV       0.032700
     29 H10          3.2630     2.3490     1.0630 hc         1 3KV       0.032700
     30 H11         -4.9120     1.1700    -1.7600 hc         1 3KV       0.035367
     31 H12         -6.2810     1.5160    -0.7040 hc         1 3KV       0.035367
     32 H13         -4.6740     2.1610    -0.3350 hc         1 3KV       0.035367
     33 H15         -5.4120    -1.5380     1.2850 ha         1 3KV       0.093000
     34 H16         -3.2930    -1.1900     0.8020 ha         1 3KV       0.102000
     35 H18         -2.6300     1.2530    -0.9100 ha         1 3KV       0.126000
     36 H20          0.6030     2.5720    -0.9410 hc         1 3KV       0.031700
     37 H21          0.5060     1.6000    -2.3950 hc         1 3KV       0.031700
     38 H22         -0.9660     2.1630    -1.6140 hc         1 3KV       0.031700
     39 H23          3.8170    -3.0580    -1.7770 hc         1 3KV       0.038700
     40 H24          2.7770    -3.0930    -0.3710 hc         1 3KV       0.038700
     41 H25          2.4410    -1.9570    -1.6670 hc         1 3KV       0.038700
     42 H26          7.3420    -1.4480     0.8980 hc         1 3KV       0.035200
     43 H27          6.9430    -0.5320    -0.5380 hc         1 3KV       0.035200
     44 H28          5.4720    -0.3520     2.1280 hc         1 3KV       0.037700
     45 H29          6.6300     0.8340     1.5540 hc         1 3KV       0.037700
     46 H30          4.5790     2.3350    -1.1120 hc         1 3KV       0.032700
     47 H31          5.9930     2.5440    -0.0860 hc         1 3KV       0.032700
     48 H32          5.9620     1.2640    -1.2990 hc         1 3KV       0.032700
     49 C17          3.9940     1.6830     1.5220 c3         1 3KV      -0.078100
@<TRIPOS>BOND
     1     1     2 1   
     2     1    18 1   
     3     1    22 1   
     4     1    23 1   
     5     2     3 2   
     6     2    17 1   
     7     3     4 1   
     8     3    20 1   
     9     4     5 2   
    10     4    24 1   
    11     5    15 1   
    12     5    25 1   
    13     6    14 1   
    14     6    15 2   
    15     6    26 1   
    16     7     9 1   
    17     7    12 2   
    18     7    13 1   
    19     8    10 1   
    20     8    11 1   
    21     8    12 1   
    22     9    30 1   
    23     9    31 1   
    24     9    32 1   
    25    12    33 1   
    26    13    14 2   
    27    13    34 1   
    28    14    35 1   
    29    15    16 1   
    30    16    36 1   
    31    16    37 1   
    32    16    38 1   
    33    17    39 1   
    34    17    40 1   
    35    17    41 1   
    36    18    19 1   
    37    18    42 1   
    38    18    43 1   
    39    19    20 1   
    40    19    44 1   
    41    19    45 1   
    42    20    21 1   
    43    20    49 1   
    44    21    46 1   
    45    21    47 1   
    46    21    48 1   
    47    27    49 1   
    48    28    49 1   
    49    29    49 1   
@<TRIPOS>SUBSTRUCTURE
     1 3KV         1 TEMP              0 ****  ****    0 ROOT
