@<TRIPOS>MOLECULE
3KV
   49    49     1     0     0
SMALL
No Charge or Current Charge


@<TRIPOS>ATOM
      1 C4           5.4720    -2.0550     0.0610 c6         1 3KV      -0.035200
      2 C5           4.1200    -1.4700    -0.3630 c2         1 3KV      -0.119400
      3 C6           3.8040    -0.1520    -0.1050 ce         1 3KV      -0.058200
      4 C7           2.5070     0.4630    -0.4480 ce         1 3KV      -0.218000
      5 C8           1.2790    -0.1030    -0.2670 cf         1 3KV      -0.139000
      6 C10         -1.1660    -0.0710    -0.0700 ce         1 3KV      -0.106000
      7 C13         -4.9560     0.1080     0.0510 ce         1 3KV      -0.158200
      8 C15         -7.3890    -0.6880     0.5910 c          1 3KV       0.695200
      9 C20         -5.3700     1.4160    -0.6360 c3         1 3KV      -0.036900
     10 O1          -7.9770    -1.5810     1.1820 o          1 3KV      -0.719000
     11 O2          -7.9770     0.2020    -0.0040 o          1 3KV      -0.719000
     12 C14         -5.8870    -0.7580     0.5910 cf         1 3KV      -0.187200
     13 C12         -3.6430    -0.2800     0.2030 cf         1 3KV      -0.086000
     14 C11         -2.5500     0.3920    -0.2660 ce         1 3KV      -0.281000
     15 C9          -0.0250     0.4970    -0.5660 cf         1 3KV      -0.147200
     16 C19         -0.0480     1.7110    -1.4930 c3         1 3KV      -0.035900
     17 C18          3.2240    -2.5460    -1.0300 c3         1 3KV      -0.050900
     18 C3           6.5810    -1.0050     0.2750 c6         1 3KV      -0.070400
     19 C2           6.0920     0.1360     1.1810 c6         1 3KV      -0.067400
     20 C1           4.8800     0.8860     0.5100 c6         1 3KV      -0.000800
     21 C16          5.4460     1.8620    -0.6060 c3         1 3KV      -0.078100
     22 H1           5.3300    -2.6260     0.9890 hc         1 3KV       0.038700
     23 H2           5.8260    -2.7790    -0.6860 hc         1 3KV       0.038700
     24 H5           2.5560     1.4850    -0.8200 ha         1 3KV       0.171000
     25 H6           1.2510    -1.0950     0.1870 ha         1 3KV       0.164000
     26 H7          -1.0540    -0.9590     0.5560 ha         1 3KV       0.156000
     27 H8           3.8060     1.2390     2.4270 hc         1 3KV       0.032700
     28 H9           5.0090     2.4850     2.0640 hc         1 3KV       0.032700
     29 H10          3.4640     2.4710     1.2090 hc         1 3KV       0.032700
     30 H11         -5.7350     1.2300    -1.6530 hc         1 3KV       0.035367
     31 H12         -6.1630     1.9270    -0.0800 hc         1 3KV       0.035367
     32 H13         -4.5700     2.1570    -0.7040 hc         1 3KV       0.035367
     33 H15         -5.5240    -1.6530     1.0940 ha         1 3KV       0.143000
     34 H16         -3.4370    -1.2140     0.7320 ha         1 3KV       0.152000
     35 H18         -2.6720     1.3180    -0.8190 ha         1 3KV       0.176000
     36 H20         -0.0080     2.6460    -0.9220 hc         1 3KV       0.031700
     37 H21          0.7940     1.7100    -2.1950 hc         1 3KV       0.031700
     38 H22         -0.9470     1.7380    -2.1190 hc         1 3KV       0.031700
     39 H23          3.8020    -3.1990    -1.6950 hc         1 3KV       0.038700
     40 H24          2.7450    -3.1810    -0.2760 hc         1 3KV       0.038700
     41 H25          2.4380    -2.0990    -1.6480 hc         1 3KV       0.038700
     42 H26          7.4580    -1.4870     0.7280 hc         1 3KV       0.035200
     43 H27          6.9170    -0.6120    -0.6940 hc         1 3KV       0.035200
     44 H28          5.7840    -0.2860     2.1480 hc         1 3KV       0.037700
     45 H29          6.9150     0.8320     1.3960 hc         1 3KV       0.037700
     46 H30          4.6600     2.5090    -1.0130 hc         1 3KV       0.032700
     47 H31          6.2320     2.5170    -0.2110 hc         1 3KV       0.032700
     48 H32          5.8700     1.3060    -1.4500 hc         1 3KV       0.032700
     49 C17          4.2520     1.8280     1.6170 c3         1 3KV      -0.078100
@<TRIPOS>BOND
     1     1     2 1   
     2     1    18 1   
     3     1    22 1   
     4     1    23 1   
     5     2     3 2   
     6     2    17 1   
     7     3     4 1   
     8     3    20 1   
     9     4     5 2   
    10     4    24 1   
    11     5    15 1   
    12     5    25 1   
    13     6    14 1   
    14     6    15 2   
    15     6    26 1   
    16     7     9 1   
    17     7    12 2   
    18     7    13 1   
    19     8    10 1   
    20     8    11 1   
    21     8    12 1   
    22     9    30 1   
    23     9    31 1   
    24     9    32 1   
    25    12    33 1   
    26    13    14 2   
    27    13    34 1   
    28    14    35 1   
    29    15    16 1   
    30    16    36 1   
    31    16    37 1   
    32    16    38 1   
    33    17    39 1   
    34    17    40 1   
    35    17    41 1   
    36    18    19 1   
    37    18    42 1   
    38    18    43 1   
    39    19    20 1   
    40    19    44 1   
    41    19    45 1   
    42    20    21 1   
    43    20    49 1   
    44    21    46 1   
    45    21    47 1   
    46    21    48 1   
    47    27    49 1   
    48    28    49 1   
    49    29    49 1   
@<TRIPOS>SUBSTRUCTURE
     1 3KV         1 TEMP              0 ****  ****    0 ROOT
