@<TRIPOS>MOLECULE
3KW
   73    77     1     0     0
SMALL
No Charge or Current Charge


@<TRIPOS>ATOM
      1 C1          -2.7750    -1.1480     1.0790 c          1 3KW       0.564000
      2 C2          -2.7540    -0.4920    -0.3270 c5         1 3KW       0.164200
      3 N3          -3.0390    -1.5860    -1.3000 nu         1 3KW      -0.919400
      4 C4          -3.2360    -2.7150    -0.5660 c2         1 3KW       0.686800
      5 N5          -3.1070    -2.4600     0.7900 n          1 3KW      -0.391300
      6 O6          -2.5580    -0.6780     2.1900 o          1 3KW      -0.515000
      7 C7          -3.8820     0.5850    -0.4410 c3         1 3KW      -0.066400
      8 C8          -0.0290    -0.5260    -0.2580 c6         1 3KW      -0.056700
      9 C9          -5.3240     0.1070    -0.1050 c3         1 3KW      -0.071400
     10 C10         -6.4500     1.1650    -0.3200 c6         1 3KW      -0.059700
     11 C11          1.1660     0.4540    -0.4560 c6         1 3KW      -0.084400
     12 C12          2.5190    -0.1920    -0.0640 c6         1 3KW       0.241500
     13 C13          2.7560    -1.4860    -0.8810 c6         1 3KW      -0.107400
     14 C14          1.5880    -2.4810    -0.6880 c6         1 3KW      -0.069400
     15 C15          0.2290    -1.8370    -1.0570 c6         1 3KW      -0.078400
     16 C16         -7.8510     0.5190    -0.1190 c6         1 3KW      -0.072400
     17 C17         -8.9930     1.5420    -0.3400 c6         1 3KW      -0.072400
     18 C18         -8.8280     2.7710     0.5850 c6         1 3KW      -0.074400
     19 C19         -7.4420     3.4290     0.3890 c6         1 3KW      -0.072400
     20 C20         -6.2960     2.4100     0.6040 c6         1 3KW      -0.072400
     21 N21         -3.2480    -3.8440    -1.1270 n2         1 3KW      -0.875100
     22 N22          3.6020     0.7670    -0.3070 nu         1 3KW      -0.933100
     23 C23         -1.3760     0.1900    -0.6290 c3         1 3KW      -0.084400
     24 C24         -3.2370    -3.4700     1.8590 c3         1 3KW       0.091300
     25 C25          4.9020     0.6020     0.0730 ca         1 3KW       0.632900
     26 C26          5.3270    -0.1990     1.1410 ca         1 3KW      -0.208000
     27 C27          6.6980    -0.2600     1.4220 ca         1 3KW      -0.031000
     28 N28          5.7110     1.3290    -0.6950 nb         1 3KW      -0.772000
     29 C29          7.0390     1.2810    -0.4370 ca         1 3KW       0.331000
     30 C30          7.5710     0.4930     0.6180 ca         1 3KW      -0.133000
     31 C31          8.9580     0.4640     0.8610 ca         1 3KW      -0.072000
     32 C32          9.8270     1.2190     0.0580 ca         1 3KW      -0.132000
     33 C33          9.3140     2.0020    -0.9870 ca         1 3KW      -0.090000
     34 C34          7.9290     2.0310    -1.2290 ca         1 3KW      -0.106000
     35 H1          -3.6380     1.4170     0.2300 hc         1 3KW       0.055700
     36 H2          -3.8830     1.0020    -1.4550 hc         1 3KW       0.055700
     37 H3          -0.0830    -0.7750     0.8110 hc         1 3KW       0.053700
     38 H4          -5.5480    -0.7700    -0.7250 hc         1 3KW       0.048200
     39 H5          -5.3530    -0.2440     0.9340 hc         1 3KW       0.048200
     40 H6          -6.3720     1.4950    -1.3660 hc         1 3KW       0.043700
     41 H7           1.2020     0.7840    -1.5030 hc         1 3KW       0.051200
     42 H8           1.0100     1.3570     0.1510 hc         1 3KW       0.051200
     43 H9           2.4730    -0.4490     1.0060 h1         1 3KW       0.059700
     44 H10          2.8610    -1.2440    -1.9480 hc         1 3KW       0.049700
     45 H11          3.6960    -1.9640    -0.5740 hc         1 3KW       0.049700
     46 H12          1.7550    -3.3750    -1.3030 hc         1 3KW       0.044200
     47 H13          1.5630    -2.8230     0.3560 hc         1 3KW       0.044200
     48 H14         -0.5560    -2.5720    -0.8530 hc         1 3KW       0.044700
     49 H15          0.1980    -1.6320    -2.1360 hc         1 3KW       0.044700
     50 H16         -7.9800    -0.3230    -0.8130 hc         1 3KW       0.039450
     51 H17         -7.9270     0.1000     0.8940 hc         1 3KW       0.039450
     52 H18         -9.0010     1.8670    -1.3900 hc         1 3KW       0.037950
     53 H19         -9.9640     1.0630    -0.1530 hc         1 3KW       0.037950
     54 H20         -9.6220     3.5020     0.3800 hc         1 3KW       0.038200
     55 H21         -8.9480     2.4640     1.6340 hc         1 3KW       0.038200
     56 H22         -7.3750     3.8520    -0.6230 hc         1 3KW       0.037950
     57 H23         -7.3280     4.2710     1.0860 hc         1 3KW       0.037950
     58 H24         -6.2780     2.0940     1.6570 hc         1 3KW       0.039450
     59 H25         -5.3400     2.9150     0.4140 hc         1 3KW       0.039450
     60 H26         -3.2770    -4.5600    -0.3920 hn         1 3KW       0.400400
     61 H28          3.5460     1.3580    -1.1290 hn         1 3KW       0.489000
     62 H29         -1.3490     0.4690    -1.6900 hc         1 3KW       0.059700
     63 H30         -1.3690     1.1490    -0.0950 hc         1 3KW       0.059700
     64 H31         -3.9860    -4.2220     1.5790 h1         1 3KW       0.051700
     65 H32         -2.2700    -3.9640     2.0190 h1         1 3KW       0.051700
     66 H33         -3.5560    -2.9960     2.7960 h1         1 3KW       0.051700
     67 H34          4.6170    -0.7580     1.7400 ha         1 3KW       0.121000
     68 H35          7.0710    -0.8720     2.2420 ha         1 3KW       0.114000
     69 H36          9.3620    -0.1410     1.6700 ha         1 3KW       0.109000
     70 H37         10.8990     1.1960     0.2460 ha         1 3KW       0.113000
     71 H38          9.9870     2.5880    -1.6100 ha         1 3KW       0.112000
     72 H39          7.5380     2.6390    -2.0400 ha         1 3KW       0.127000
     73 H40         -2.4530    -1.7400    -2.1140 hn         1 3KW       0.518000
@<TRIPOS>BOND
     1     1     2 1   
     2     1     5 1   
     3     1     6 2   
     4     2     3 1   
     5     2     7 1   
     6     2    23 1   
     7     3     4 1   
     8     3    73 1   
     9     4     5 1   
    10     4    21 2   
    11     5    24 1   
    12     7     9 1   
    13     7    35 1   
    14     7    36 1   
    15     8    11 1   
    16     8    15 1   
    17     8    23 1   
    18     8    37 1   
    19     9    10 1   
    20     9    38 1   
    21     9    39 1   
    22    10    16 1   
    23    10    20 1   
    24    10    40 1   
    25    11    12 1   
    26    11    41 1   
    27    11    42 1   
    28    12    13 1   
    29    12    22 1   
    30    12    43 1   
    31    13    14 1   
    32    13    44 1   
    33    13    45 1   
    34    14    15 1   
    35    14    46 1   
    36    14    47 1   
    37    15    48 1   
    38    15    49 1   
    39    16    17 1   
    40    16    50 1   
    41    16    51 1   
    42    17    18 1   
    43    17    52 1   
    44    17    53 1   
    45    18    19 1   
    46    18    54 1   
    47    18    55 1   
    48    19    20 1   
    49    19    56 1   
    50    19    57 1   
    51    20    58 1   
    52    20    59 1   
    53    21    60 1   
    54    22    25 1   
    55    22    61 1   
    56    23    62 1   
    57    23    63 1   
    58    24    64 1   
    59    24    65 1   
    60    24    66 1   
    61    25    26 ar  
    62    25    28 ar  
    63    26    27 ar  
    64    26    67 1   
    65    27    30 ar  
    66    27    68 1   
    67    28    29 ar  
    68    29    30 ar  
    69    29    34 ar  
    70    30    31 ar  
    71    31    32 ar  
    72    31    69 1   
    73    32    33 ar  
    74    32    70 1   
    75    33    34 ar  
    76    33    71 1   
    77    34    72 1   
@<TRIPOS>SUBSTRUCTURE
     1 3KW         1 TEMP              0 ****  ****    0 ROOT
