@<TRIPOS>MOLECULE
3KW
   73    77     1     0     0
SMALL
abcg2


@<TRIPOS>ATOM
      1 C1          -2.5370    -0.6810     1.0350 c          1 3KW       0.564000
      2 C2          -2.7280    -0.4680    -0.4610 c5         1 3KW       0.164200
      3 N3          -3.0460    -1.8090    -0.8860 nu         1 3KW      -0.919400
      4 C4          -2.9000    -2.7310     0.0980 c2         1 3KW       0.686800
      5 N5          -2.6470    -2.0140     1.2740 n          1 3KW      -0.391300
      6 O6          -2.3170     0.1810     1.8570 o          1 3KW      -0.515000
      7 C7          -3.8780     0.5190    -0.7060 c3         1 3KW      -0.066400
      8 C8          -0.1330    -0.6840    -0.8120 c6         1 3KW      -0.056700
      9 C9          -5.2380     0.0500    -0.2020 c3         1 3KW      -0.071400
     10 C10         -6.3420     1.1000    -0.3390 c6         1 3KW      -0.059700
     11 C11          1.0440     0.2950    -0.8640 c6         1 3KW      -0.084400
     12 C12          2.3840    -0.3880    -0.6150 c6         1 3KW       0.241500
     13 C13          2.5950    -1.5390    -1.5990 c6         1 3KW      -0.107400
     14 C14          1.4380    -2.5270    -1.5370 c6         1 3KW      -0.069400
     15 C15          0.1020    -1.8370    -1.7910 c6         1 3KW      -0.078400
     16 C16         -7.7110     0.4750    -0.0690 c6         1 3KW      -0.072400
     17 C17         -8.8430     1.4940    -0.1650 c6         1 3KW      -0.072400
     18 C18         -8.6060     2.6780     0.7660 c6         1 3KW      -0.074400
     19 C19         -7.2500     3.3190     0.4950 c6         1 3KW      -0.072400
     20 C20         -6.1220     2.2960     0.5900 c6         1 3KW      -0.072400
     21 N21         -2.9910    -3.9890    -0.0510 n2         1 3KW      -0.875100
     22 N22          3.4350     0.6070    -0.6820 nu         1 3KW      -0.933100
     23 C23         -1.4320     0.0900    -1.0710 c3         1 3KW      -0.084400
     24 C24         -2.5040    -2.6420     2.5650 c3         1 3KW       0.091300
     25 C25          4.6850     0.4830    -0.1730 ca         1 3KW       0.632900
     26 C26          4.9980    -0.5350     0.7830 ca         1 3KW      -0.208000
     27 C27          6.2550    -0.5890     1.2930 ca         1 3KW      -0.031000
     28 N28          5.5790     1.3620    -0.5760 nb         1 3KW      -0.772000
     29 C29          6.8300     1.3160    -0.0700 ca         1 3KW       0.331000
     30 C30          7.2360     0.3480     0.8820 ca         1 3KW      -0.133000
     31 C31          8.5560     0.3480     1.3710 ca         1 3KW      -0.072000
     32 C32          9.4600     1.2820     0.9340 ca         1 3KW      -0.132000
     33 C33          9.0620     2.2470    -0.0120 ca         1 3KW      -0.090000
     34 C34          7.7820     2.2670    -0.5040 ca         1 3KW      -0.106000
     35 H1          -3.5980     1.4650    -0.2380 hc         1 3KW       0.055700
     36 H2          -3.9380     0.7150    -1.7810 hc         1 3KW       0.055700
     37 H3          -0.1480    -1.1060     0.2020 hc         1 3KW       0.053700
     38 H4          -5.5300    -0.8490    -0.7510 hc         1 3KW       0.048200
     39 H5          -5.1760    -0.2430     0.8530 hc         1 3KW       0.048200
     40 H6          -6.3400     1.4690    -1.3750 hc         1 3KW       0.043700
     41 H7           1.0630     0.7850    -1.8460 hc         1 3KW       0.051200
     42 H8           0.8990     1.0830    -0.1200 hc         1 3KW       0.051200
     43 H9           2.3570    -0.7950     0.4010 h1         1 3KW       0.059700
     44 H10          2.6720    -1.1230    -2.6090 hc         1 3KW       0.049700
     45 H11          3.5440    -2.0410    -1.3910 hc         1 3KW       0.049700
     46 H12          1.5890    -3.3250    -2.2670 hc         1 3KW       0.044200
     47 H13          1.4170    -3.0090    -0.5530 hc         1 3KW       0.044200
     48 H14         -0.7030    -2.5700    -1.7280 hc         1 3KW       0.044700
     49 H15          0.0850    -1.4410    -2.8130 hc         1 3KW       0.044700
     50 H16         -7.8860    -0.3470    -0.7690 hc         1 3KW       0.039450
     51 H17         -7.7050     0.0310     0.9340 hc         1 3KW       0.039450
     52 H18         -8.9140     1.8570    -1.1960 hc         1 3KW       0.037950
     53 H19         -9.8000     1.0160     0.0620 hc         1 3KW       0.037950
     54 H20         -9.4060     3.4140     0.6540 hc         1 3KW       0.038200
     55 H21         -8.6440     2.3340     1.8060 hc         1 3KW       0.038200
     56 H22         -7.2550     3.7630    -0.5060 hc         1 3KW       0.037950
     57 H23         -7.0700     4.1380     1.1960 hc         1 3KW       0.037950
     58 H24         -6.0530     1.9260     1.6200 hc         1 3KW       0.039450
     59 H25         -5.1670     2.7800     0.3720 hc         1 3KW       0.039450
     60 H26         -2.8460    -4.4900     0.8170 hn         1 3KW       0.400400
     61 H28          3.3590     1.2820    -1.4290 hn         1 3KW       0.489000
     62 H29         -1.5840     0.1930    -2.1500 hc         1 3KW       0.059700
     63 H30         -1.3220     1.1090    -0.6880 hc         1 3KW       0.059700
     64 H31         -3.3900    -3.2270     2.8080 h1         1 3KW       0.051700
     65 H32         -1.6290    -3.2920     2.5890 h1         1 3KW       0.051700
     66 H33         -2.3830    -1.8700     3.3190 h1         1 3KW       0.051700
     67 H34          4.2520    -1.2480     1.1030 ha         1 3KW       0.121000
     68 H35          6.5130    -1.3520     2.0180 ha         1 3KW       0.114000
     69 H36          8.8480    -0.4020     2.0980 ha         1 3KW       0.109000
     70 H37         10.4740     1.2830     1.3110 ha         1 3KW       0.113000
     71 H38          9.7790     2.9810    -0.3570 ha         1 3KW       0.112000
     72 H39          7.4790     3.0100    -1.2310 ha         1 3KW       0.127000
     73 H40         -3.0250    -2.0870    -1.8530 hn         1 3KW       0.518000
@<TRIPOS>BOND
     1     1     2 1   
     2     1     5 1   
     3     1     6 2   
     4     2     3 1   
     5     2     7 1   
     6     2    23 1   
     7     3     4 1   
     8     3    73 1   
     9     4     5 1   
    10     4    21 2   
    11     5    24 1   
    12     7     9 1   
    13     7    35 1   
    14     7    36 1   
    15     8    11 1   
    16     8    15 1   
    17     8    23 1   
    18     8    37 1   
    19     9    10 1   
    20     9    38 1   
    21     9    39 1   
    22    10    16 1   
    23    10    20 1   
    24    10    40 1   
    25    11    12 1   
    26    11    41 1   
    27    11    42 1   
    28    12    13 1   
    29    12    22 1   
    30    12    43 1   
    31    13    14 1   
    32    13    44 1   
    33    13    45 1   
    34    14    15 1   
    35    14    46 1   
    36    14    47 1   
    37    15    48 1   
    38    15    49 1   
    39    16    17 1   
    40    16    50 1   
    41    16    51 1   
    42    17    18 1   
    43    17    52 1   
    44    17    53 1   
    45    18    19 1   
    46    18    54 1   
    47    18    55 1   
    48    19    20 1   
    49    19    56 1   
    50    19    57 1   
    51    20    58 1   
    52    20    59 1   
    53    21    60 1   
    54    22    25 1   
    55    22    61 1   
    56    23    62 1   
    57    23    63 1   
    58    24    64 1   
    59    24    65 1   
    60    24    66 1   
    61    25    26 ar  
    62    25    28 ar  
    63    26    27 ar  
    64    26    67 1   
    65    27    30 ar  
    66    27    68 1   
    67    28    29 ar  
    68    29    30 ar  
    69    29    34 ar  
    70    30    31 ar  
    71    31    32 ar  
    72    31    69 1   
    73    32    33 ar  
    74    32    70 1   
    75    33    34 ar  
    76    33    71 1   
    77    34    72 1   
@<TRIPOS>SUBSTRUCTURE
     1 3KW         1 TEMP              0 ****  ****    0 ROOT
