@<TRIPOS>MOLECULE
3KX
   42    44     1     0     0
SMALL
No Charge or Current Charge


@<TRIPOS>ATOM
      1 O           -1.4090    -1.8560    -1.5640 o          1 3KX      -0.556000
      2 C           -0.9540    -0.8170    -1.1080 c          1 3KX       0.574200
      3 C11         -1.7230     0.1440    -0.2930 cc         1 3KX      -0.231400
      4 C12         -3.1330    -0.0910     0.0270 ca         1 3KX      -0.007800
      5 C17         -4.1000    -0.0800    -0.9960 ca         1 3KX      -0.085000
      6 C16         -5.4540    -0.3180    -0.6980 ca         1 3KX      -0.117000
      7 C15         -5.8480    -0.5740     0.6270 ca         1 3KX      -0.110000
      8 C14         -4.8870    -0.5930     1.6520 ca         1 3KX      -0.117000
      9 C13         -3.5340    -0.3540     1.3530 ca         1 3KX      -0.085000
     10 C10         -1.1520     1.3080     0.1940 cd         1 3KX       0.232100
     11 O1          -1.8300     2.2140     0.9220 oh         1 3KX      -0.509100
     12 C9           0.2280     1.5730    -0.0990 cd         1 3KX      -0.381000
     13 C1           0.9530     0.6780    -0.8500 cc         1 3KX       0.112400
     14 N            0.3460    -0.4620    -1.3250 ns         1 3KX      -0.369100
     15 C2           2.4060     0.8310    -1.2250 c3         1 3KX      -0.055200
     16 C3           3.4080     0.4550    -0.0920 c6         1 3KX      -0.057700
     17 C8           3.2840    -1.0370     0.3360 c6         1 3KX      -0.073900
     18 C7           4.2930    -1.3940     1.4550 c6         1 3KX      -0.072400
     19 C6           5.7440    -1.0640     1.0310 c6         1 3KX      -0.075400
     20 C5           5.8770     0.4200     0.6130 c6         1 3KX      -0.072400
     21 C4           4.8710     0.7770    -0.5100 c6         1 3KX      -0.073900
     22 H1          -3.8010     0.1160    -2.0230 ha         1 3KX       0.112000
     23 H2          -6.1960    -0.3050    -1.4930 ha         1 3KX       0.108000
     24 H3          -6.8940    -0.7590     0.8580 ha         1 3KX       0.107000
     25 H4          -5.1890    -0.7930     2.6770 ha         1 3KX       0.108000
     26 H5          -2.7940    -0.3730     2.1490 ha         1 3KX       0.112000
     27 H6          -1.2020     2.9350     1.1270 ho         1 3KX       0.468000
     28 H7           0.7120     2.4730     0.2670 ha         1 3KX       0.198000
     29 H8           0.8820    -1.1170    -1.8790 hn         1 3KX       0.327500
     30 H9           2.6290     0.2420    -2.1240 hc         1 3KX       0.061200
     31 H10          2.5720     1.8750    -1.5190 hc         1 3KX       0.061200
     32 H11          3.1490     1.0860     0.7700 hc         1 3KX       0.054700
     33 H12          2.2660    -1.2470     0.6930 hc         1 3KX       0.040700
     34 H13          3.4510    -1.6900    -0.5320 hc         1 3KX       0.040700
     35 H14          4.0400    -0.8410     2.3710 hc         1 3KX       0.041700
     36 H15          4.2110    -2.4610     1.7040 hc         1 3KX       0.041700
     37 H16          6.4330    -1.2820     1.8580 hc         1 3KX       0.040700
     38 H17          6.0430    -1.7130     0.1960 hc         1 3KX       0.040700
     39 H18          5.7050     1.0670     1.4840 hc         1 3KX       0.041700
     40 H19          6.9020     0.6210     0.2720 hc         1 3KX       0.041700
     41 H20          5.1290     0.2230    -1.4230 hc         1 3KX       0.040700
     42 H21          4.9640     1.8440    -0.7560 hc         1 3KX       0.040700
@<TRIPOS>BOND
     1     1     2 2   
     2     2     3 1   
     3     2    14 1   
     4     3     4 1   
     5     3    10 2   
     6     4     5 ar  
     7     4     9 ar  
     8     5     6 ar  
     9     5    22 1   
    10     6     7 ar  
    11     6    23 1   
    12     7     8 ar  
    13     7    24 1   
    14     8     9 ar  
    15     8    25 1   
    16     9    26 1   
    17    10    11 1   
    18    10    12 1   
    19    11    27 1   
    20    12    13 2   
    21    12    28 1   
    22    13    14 1   
    23    13    15 1   
    24    14    29 1   
    25    15    16 1   
    26    15    30 1   
    27    15    31 1   
    28    16    17 1   
    29    16    21 1   
    30    16    32 1   
    31    17    18 1   
    32    17    33 1   
    33    17    34 1   
    34    18    19 1   
    35    18    35 1   
    36    18    36 1   
    37    19    20 1   
    38    19    37 1   
    39    19    38 1   
    40    20    21 1   
    41    20    39 1   
    42    20    40 1   
    43    21    41 1   
    44    21    42 1   
@<TRIPOS>SUBSTRUCTURE
     1 3KX         1 TEMP              0 ****  ****    0 ROOT
