@<TRIPOS>MOLECULE
3KX
   42    44     1     0     0
SMALL
bcc


@<TRIPOS>ATOM
      1 O           -1.4040    -1.7880    -1.5410 o          1 3KX      -0.631500
      2 C           -0.9540    -0.7370    -1.0850 c          1 3KX       0.716700
      3 C11         -1.6800     0.2030    -0.2820 cc         1 3KX      -0.231400
      4 C12         -3.0910    -0.0890     0.0460 ca         1 3KX      -0.007800
      5 C17         -4.0430    -0.2240    -0.9640 ca         1 3KX      -0.103000
      6 C16         -5.3700    -0.4930    -0.6580 ca         1 3KX      -0.135000
      7 C15         -5.7670    -0.6350     0.6650 ca         1 3KX      -0.128000
      8 C14         -4.8270    -0.5090     1.6790 ca         1 3KX      -0.135000
      9 C13         -3.5000    -0.2400     1.3700 ca         1 3KX      -0.103000
     10 C10         -1.0540     1.3490     0.1580 cd         1 3KX       0.232100
     11 O1          -1.7590     2.2210     0.8800 oh         1 3KX      -0.470100
     12 C9           0.3020     1.6140    -0.1520 cd         1 3KX      -0.331000
     13 C1           0.9950     0.7160    -0.9030 cc         1 3KX       0.112400
     14 N            0.3650    -0.3960    -1.3420 ns         1 3KX      -0.436100
     15 C2           2.4450     0.8800    -1.2320 c3         1 3KX      -0.055200
     16 C3           3.3740     0.4520    -0.0870 c6         1 3KX      -0.057700
     17 C8           3.2340    -1.0280     0.2670 c6         1 3KX      -0.073900
     18 C7           4.2000    -1.4370     1.3760 c6         1 3KX      -0.072400
     19 C6           5.6420    -1.0950     1.0190 c6         1 3KX      -0.075400
     20 C5           5.7860     0.3810     0.6690 c6         1 3KX      -0.072400
     21 C4           4.8230     0.7800    -0.4440 c6         1 3KX      -0.073900
     22 H1          -3.7470    -0.1040    -1.9990 ha         1 3KX       0.130000
     23 H2          -6.0950    -0.5890    -1.4560 ha         1 3KX       0.126000
     24 H3          -6.8020    -0.8430     0.9040 ha         1 3KX       0.125000
     25 H4          -5.1250    -0.6230     2.7140 ha         1 3KX       0.126000
     26 H5          -2.7730    -0.1570     2.1680 ha         1 3KX       0.130000
     27 H6          -1.2180     2.9830     1.1190 ho         1 3KX       0.429000
     28 H7           0.7910     2.5130     0.2000 ha         1 3KX       0.148000
     29 H8           0.8890    -1.0550    -1.9030 hn         1 3KX       0.327500
     30 H9           2.6930     0.3170    -2.1370 hc         1 3KX       0.061200
     31 H10          2.6300     1.9330    -1.4590 hc         1 3KX       0.061200
     32 H11          3.1030     1.0400     0.7990 hc         1 3KX       0.054700
     33 H12          2.2100    -1.2550     0.5760 hc         1 3KX       0.040700
     34 H13          3.4270    -1.6320    -0.6280 hc         1 3KX       0.040700
     35 H14          3.9220    -0.9190     2.3000 hc         1 3KX       0.041700
     36 H15          4.1000    -2.5060     1.5790 hc         1 3KX       0.041700
     37 H16          6.3080    -1.3570     1.8450 hc         1 3KX       0.040700
     38 H17          5.9570    -1.7020     0.1620 hc         1 3KX       0.040700
     39 H18          5.5830     0.9890     1.5570 hc         1 3KX       0.041700
     40 H19          6.8140     0.6030     0.3710 hc         1 3KX       0.041700
     41 H20          5.0950     0.2510    -1.3650 hc         1 3KX       0.040700
     42 H21          4.9180     1.8480    -0.6610 hc         1 3KX       0.040700
@<TRIPOS>BOND
     1     1     2 2   
     2     2     3 1   
     3     2    14 1   
     4     3     4 1   
     5     3    10 2   
     6     4     5 ar  
     7     4     9 ar  
     8     5     6 ar  
     9     5    22 1   
    10     6     7 ar  
    11     6    23 1   
    12     7     8 ar  
    13     7    24 1   
    14     8     9 ar  
    15     8    25 1   
    16     9    26 1   
    17    10    11 1   
    18    10    12 1   
    19    11    27 1   
    20    12    13 2   
    21    12    28 1   
    22    13    14 1   
    23    13    15 1   
    24    14    29 1   
    25    15    16 1   
    26    15    30 1   
    27    15    31 1   
    28    16    17 1   
    29    16    21 1   
    30    16    32 1   
    31    17    18 1   
    32    17    33 1   
    33    17    34 1   
    34    18    19 1   
    35    18    35 1   
    36    18    36 1   
    37    19    20 1   
    38    19    37 1   
    39    19    38 1   
    40    20    21 1   
    41    20    39 1   
    42    20    40 1   
    43    21    41 1   
    44    21    42 1   
@<TRIPOS>SUBSTRUCTURE
     1 3KX         1 TEMP              0 ****  ****    0 ROOT
