@<TRIPOS>MOLECULE
3KY
   48    50     1     0     0
SMALL
No Charge or Current Charge


@<TRIPOS>ATOM
      1 O1           1.9870     1.3810    -1.9480 o          1 3KY      -0.556000
      2 C19          1.5740     0.4450    -1.2790 c          1 3KY       0.574200
      3 C12          2.3600    -0.2510    -0.2420 cc         1 3KY      -0.229400
      4 C13          3.7370     0.1460     0.0600 ca         1 3KY      -0.007800
      5 C18          4.7490    -0.0320    -0.9040 ca         1 3KY      -0.084500
      6 C17          6.0710     0.3590    -0.6260 ca         1 3KY      -0.117000
      7 C16          6.3880     0.9340     0.6160 ca         1 3KY      -0.110000
      8 C15          5.3830     1.1200     1.5790 ca         1 3KY      -0.117000
      9 C14          4.0610     0.7280     1.3010 ca         1 3KY      -0.084500
     10 C            1.8360    -1.3100     0.4820 cd         1 3KY       0.230100
     11 O            2.5320    -1.9790     1.4200 oh         1 3KY      -0.510100
     12 N            0.3080    -0.0370    -1.4490 ns         1 3KY      -0.370100
     13 C2          -0.2520    -1.0770    -0.7450 cc         1 3KY       0.113400
     14 C1           0.4890    -1.7270     0.2150 cd         1 3KY      -0.379000
     15 C3          -1.6750    -1.4090    -1.1190 c3         1 3KY      -0.056200
     16 C4          -2.7480    -0.8490    -0.1370 c6         1 3KY      -0.056700
     17 C11         -4.1680    -1.3560    -0.5120 c6         1 3KY      -0.072900
     18 C10         -5.2460    -0.8080     0.4600 c6         1 3KY      -0.064900
     19 C7          -5.2490     0.7500     0.5490 c6         1 3KY      -0.047000
     20 C9          -6.2440     1.2040     1.6590 c3         1 3KY      -0.083100
     21 C8          -5.7500     1.3930    -0.7850 c3         1 3KY      -0.083100
     22 C6          -3.8120     1.2430     0.9080 c6         1 3KY      -0.064900
     23 C5          -2.7260     0.7040    -0.0600 c6         1 3KY      -0.072900
     24 H1           4.5090    -0.4750    -1.8670 ha         1 3KY       0.112000
     25 H2           6.8480     0.2160    -1.3740 ha         1 3KY       0.108000
     26 H3           7.4110     1.2370     0.8310 ha         1 3KY       0.107000
     27 H4           5.6260     1.5670     2.5410 ha         1 3KY       0.108000
     28 H5           3.2860     0.8770     2.0490 ha         1 3KY       0.112000
     29 H6           1.9390    -2.6750     1.7650 ho         1 3KY       0.468000
     30 H7          -0.2390     0.4370    -2.1550 hn         1 3KY       0.327500
     31 H8           0.0420    -2.5510     0.7620 ha         1 3KY       0.197000
     32 H9          -1.8890    -1.0590    -2.1370 hc         1 3KY       0.061200
     33 H10         -1.7680    -2.5010    -1.1670 hc         1 3KY       0.061200
     34 H11         -2.4940    -1.2470     0.8560 hc         1 3KY       0.054700
     35 H12         -4.4100    -1.0740    -1.5450 hc         1 3KY       0.041200
     36 H13         -4.1870    -2.4550    -0.4860 hc         1 3KY       0.041200
     37 H14         -6.2360    -1.1700     0.1500 hc         1 3KY       0.041950
     38 H15         -5.0680    -1.2330     1.4580 hc         1 3KY       0.041950
     39 H16         -5.9660     0.7950     2.6380 hc         1 3KY       0.033533
     40 H17         -6.2680     2.2960     1.7560 hc         1 3KY       0.033533
     41 H18         -7.2660     0.8690     1.4440 hc         1 3KY       0.033533
     42 H19         -6.7670     1.0610    -1.0290 hc         1 3KY       0.033533
     43 H20         -5.7720     2.4870    -0.7160 hc         1 3KY       0.033533
     44 H21         -5.1150     1.1380    -1.6400 hc         1 3KY       0.033533
     45 H22         -3.7810     2.3410     0.9170 hc         1 3KY       0.041950
     46 H23         -3.5600     0.9260     1.9300 hc         1 3KY       0.041950
     47 H24         -1.7430     1.0480     0.2890 hc         1 3KY       0.041200
     48 H25         -2.8610     1.1350    -1.0610 hc         1 3KY       0.041200
@<TRIPOS>BOND
     1     1     2 2   
     2     2     3 1   
     3     2    12 1   
     4     3     4 1   
     5     3    10 2   
     6     4     5 ar  
     7     4     9 ar  
     8     5     6 ar  
     9     5    24 1   
    10     6     7 ar  
    11     6    25 1   
    12     7     8 ar  
    13     7    26 1   
    14     8     9 ar  
    15     8    27 1   
    16     9    28 1   
    17    10    11 1   
    18    10    14 1   
    19    11    29 1   
    20    12    13 1   
    21    12    30 1   
    22    13    14 2   
    23    13    15 1   
    24    14    31 1   
    25    15    16 1   
    26    15    32 1   
    27    15    33 1   
    28    16    17 1   
    29    16    23 1   
    30    16    34 1   
    31    17    18 1   
    32    17    35 1   
    33    17    36 1   
    34    18    19 1   
    35    18    37 1   
    36    18    38 1   
    37    19    20 1   
    38    19    21 1   
    39    19    22 1   
    40    20    39 1   
    41    20    40 1   
    42    20    41 1   
    43    21    42 1   
    44    21    43 1   
    45    21    44 1   
    46    22    23 1   
    47    22    45 1   
    48    22    46 1   
    49    23    47 1   
    50    23    48 1   
@<TRIPOS>SUBSTRUCTURE
     1 3KY         1 TEMP              0 ****  ****    0 ROOT
