@<TRIPOS>MOLECULE
3KY
   48    50     1     0     0
SMALL
bcc


@<TRIPOS>ATOM
      1 O1           1.8480     1.4170    -1.7330 o          1 3KY      -0.631500
      2 C19          1.4990     0.4140    -1.1120 c          1 3KY       0.716700
      3 C12          2.3070    -0.3130    -0.1750 cc         1 3KY      -0.229400
      4 C13          3.6840     0.1550     0.0820 ca         1 3KY      -0.007800
      5 C18          4.6020     0.2710    -0.9620 ca         1 3KY      -0.102500
      6 C17          5.8960     0.7130    -0.7260 ca         1 3KY      -0.135000
      7 C16          6.2950     1.0500     0.5610 ca         1 3KY      -0.128000
      8 C15          5.3890     0.9420     1.6080 ca         1 3KY      -0.135000
      9 C14          4.0950     0.5010     1.3690 ca         1 3KY      -0.102500
     10 C            1.7870    -1.4290     0.4450 cd         1 3KY       0.230100
     11 O            2.5690    -2.1130     1.2830 oh         1 3KY      -0.471100
     12 N            0.2220    -0.0900    -1.3030 ns         1 3KY      -0.437100
     13 C2          -0.3060    -1.1700    -0.6840 cc         1 3KY       0.113400
     14 C1           0.4610    -1.8630     0.1990 cd         1 3KY      -0.329000
     15 C3          -1.7270    -1.5220    -0.9910 c3         1 3KY      -0.056200
     16 C4          -2.7460    -0.8770    -0.0390 c6         1 3KY      -0.056700
     17 C11         -4.1510    -1.3570    -0.4040 c6         1 3KY      -0.072900
     18 C10         -5.2210    -0.7250     0.4800 c6         1 3KY      -0.064900
     19 C7          -5.1880     0.8100     0.4740 c6         1 3KY      -0.047000
     20 C9          -6.1660     1.3390     1.5220 c3         1 3KY      -0.083100
     21 C8          -5.5990     1.3590    -0.8940 c3         1 3KY      -0.083100
     22 C6          -3.7670     1.2620     0.8380 c6         1 3KY      -0.064900
     23 C5          -2.6860     0.6490    -0.0460 c6         1 3KY      -0.072900
     24 H1           4.3060     0.0030    -1.9680 ha         1 3KY       0.130000
     25 H2           6.5940     0.7930    -1.5490 ha         1 3KY       0.126000
     26 H3           7.3040     1.3960     0.7470 ha         1 3KY       0.125000
     27 H4           5.6900     1.2050     2.6140 ha         1 3KY       0.126000
     28 H5           3.3940     0.4360     2.1910 ha         1 3KY       0.130000
     29 H6           2.1030    -2.8810     1.6350 ho         1 3KY       0.429000
     30 H7          -0.3520     0.4120    -1.9680 hn         1 3KY       0.327500
     31 H8           0.0610    -2.7380     0.6930 ha         1 3KY       0.147000
     32 H9          -1.9590    -1.2340    -2.0210 hc         1 3KY       0.061200
     33 H10         -1.8330    -2.6070    -0.9380 hc         1 3KY       0.061200
     34 H11         -2.5210    -1.2240     0.9780 hc         1 3KY       0.054700
     35 H12         -4.3460    -1.1250    -1.4570 hc         1 3KY       0.041200
     36 H13         -4.2030    -2.4460    -0.3190 hc         1 3KY       0.041200
     37 H14         -6.2110    -1.0770     0.1740 hc         1 3KY       0.041950
     38 H15         -5.0770    -1.0720     1.5100 hc         1 3KY       0.041950
     39 H16         -5.9130     0.9730     2.5200 hc         1 3KY       0.033533
     40 H17         -6.1540     2.4310     1.5550 hc         1 3KY       0.033533
     41 H18         -7.1900     1.0250     1.3030 hc         1 3KY       0.033533
     42 H19         -6.6100     1.0370    -1.1520 hc         1 3KY       0.033533
     43 H20         -5.5930     2.4520    -0.8890 hc         1 3KY       0.033533
     44 H21         -4.9380     1.0370    -1.7000 hc         1 3KY       0.033533
     45 H22         -3.7040     2.3540     0.7960 hc         1 3KY       0.041950
     46 H23         -3.5680     0.9840     1.8790 hc         1 3KY       0.041950
     47 H24         -1.7090     0.9950     0.3000 hc         1 3KY       0.041200
     48 H25         -2.7940     1.0100    -1.0760 hc         1 3KY       0.041200
@<TRIPOS>BOND
     1     1     2 2   
     2     2     3 1   
     3     2    12 1   
     4     3     4 1   
     5     3    10 2   
     6     4     5 ar  
     7     4     9 ar  
     8     5     6 ar  
     9     5    24 1   
    10     6     7 ar  
    11     6    25 1   
    12     7     8 ar  
    13     7    26 1   
    14     8     9 ar  
    15     8    27 1   
    16     9    28 1   
    17    10    11 1   
    18    10    14 1   
    19    11    29 1   
    20    12    13 1   
    21    12    30 1   
    22    13    14 2   
    23    13    15 1   
    24    14    31 1   
    25    15    16 1   
    26    15    32 1   
    27    15    33 1   
    28    16    17 1   
    29    16    23 1   
    30    16    34 1   
    31    17    18 1   
    32    17    35 1   
    33    17    36 1   
    34    18    19 1   
    35    18    37 1   
    36    18    38 1   
    37    19    20 1   
    38    19    21 1   
    39    19    22 1   
    40    20    39 1   
    41    20    40 1   
    42    20    41 1   
    43    21    42 1   
    44    21    43 1   
    45    21    44 1   
    46    22    23 1   
    47    22    45 1   
    48    22    46 1   
    49    23    47 1   
    50    23    48 1   
@<TRIPOS>SUBSTRUCTURE
     1 3KY         1 TEMP              0 ****  ****    0 ROOT
