@<TRIPOS>MOLECULE
3KZ
   58    62     1     0     0
SMALL
abcg2


@<TRIPOS>ATOM
      1 C26          4.3720     2.3160     1.4550 ca         1 3KZ      -0.128000
      2 C27          5.0440     2.6630     0.2890 ca         1 3KZ      -0.082000
      3 C25          3.0540     1.8920     1.3920 ca         1 3KZ      -0.074000
      4 C28          4.3970     2.5850    -0.9360 ca         1 3KZ      -0.153000
      5 C3          -0.0040     2.3470    -0.1650 ca         1 3KZ      -0.076000
      6 C4          -0.7900    -0.2530     0.2820 ca         1 3KZ      -0.136000
      7 C24          2.3780     1.8040     0.1760 cp         1 3KZ      -0.075000
      8 C2           0.9590     1.3790     0.1070 cp         1 3KZ      -0.041000
      9 C1           0.5690     0.0500     0.3120 ca         1 3KZ      -0.030300
     10 C5          -1.7590     0.7130     0.0400 ca         1 3KZ       0.261000
     11 C6          -1.3450     2.0260    -0.2040 ca         1 3KZ       0.063100
     12 C29          3.0830     2.1590    -0.9640 ca         1 3KZ       0.179000
     13 C9          -4.0040     1.3820    -0.3970 c2         1 3KZ       0.532200
     14 C14         -5.0570    -0.7770     0.9260 c          1 3KZ       0.547000
     15 C8          -3.3910     2.5120    -1.1600 c6         1 3KZ       0.125300
     16 C22          1.1480    -2.2460     1.3020 c6         1 3KZ      -0.070400
     17 C21          2.2910    -3.2410     1.4370 c6         1 3KZ       0.165800
     18 C19          3.2500    -2.5390    -0.6370 c6         1 3KZ       0.165800
     19 C12          1.5970    -1.0430     0.4750 c6         1 3KZ      -0.018400
     20 C13         -3.6350    -0.8800     0.4050 c6         1 3KZ       0.155500
     21 C18          2.1420    -1.5200    -0.8890 c6         1 3KZ      -0.048700
     22 C17         -3.5960    -1.8400    -0.7840 c3         1 3KZ      -0.115100
     23 C23          1.0720    -2.0760    -1.8230 c3         1 3KZ      -0.081100
     24 N16         -5.7410     0.3090     0.5290 ns         1 3KZ      -0.261900
     25 N10         -3.1300     0.4440     0.0750 nh         1 3KZ      -0.783400
     26 N11         -5.2650     1.3450    -0.2240 n2         1 3KZ      -0.487300
     27 N20          2.7760    -3.6670     0.1400 n3         1 3KZ      -0.715600
     28 O15         -5.5450    -1.6590     1.6100 o          1 3KZ      -0.538000
     29 O7          -2.2610     2.9960    -0.4570 os         1 3KZ      -0.321100
     30 F30          2.4620     2.0750    -2.1530 f          1 3KZ      -0.176000
     31 H1           4.8730     2.3810     2.4110 ha         1 3KZ       0.120000
     32 H2           6.0720     2.9960     0.3290 ha         1 3KZ       0.118000
     33 H3           2.5280     1.6260     2.3010 ha         1 3KZ       0.122000
     34 H4           4.9030     2.8470    -1.8560 ha         1 3KZ       0.133000
     35 H5           0.2900     3.3770    -0.3330 ha         1 3KZ       0.136000
     36 H6          -1.0930    -1.2770     0.4440 ha         1 3KZ       0.124000
     37 H7          -3.0990     2.1750    -2.1620 h1         1 3KZ       0.083200
     38 H8          -4.1010     3.3300    -1.2570 h1         1 3KZ       0.083200
     39 H9           0.2950    -2.7550     0.8450 hc         1 3KZ       0.048200
     40 H10          0.8300    -1.9220     2.2950 hc         1 3KZ       0.048200
     41 H11          3.1000    -2.7850     2.0390 h1         1 3KZ       0.030200
     42 H12          1.9490    -4.1190     1.9900 h1         1 3KZ       0.030200
     43 H13          3.6310    -2.9070    -1.5940 h1         1 3KZ       0.031700
     44 H14          4.0960    -2.0330    -0.1340 h1         1 3KZ       0.031700
     45 H15          2.4540    -0.6180     1.0100 hc         1 3KZ       0.055700
     46 H16         -3.0400    -1.2780     1.2290 h1         1 3KZ       0.093700
     47 H17          2.6050    -0.6630    -1.3860 hc         1 3KZ       0.052700
     48 H18         -2.5840    -1.9380    -1.1760 hc         1 3KZ       0.055367
     49 H19         -3.9330    -2.8300    -0.4810 hc         1 3KZ       0.055367
     50 H20         -4.2360    -1.4880    -1.5940 hc         1 3KZ       0.055367
     51 H21          0.6160    -2.9860    -1.4310 hc         1 3KZ       0.036367
     52 H22          0.2770    -1.3510    -2.0000 hc         1 3KZ       0.036367
     53 H23          1.5120    -2.3240    -2.7900 hc         1 3KZ       0.036367
     54 H24          4.6940    -4.3410     0.7920 h1         1 3KZ       0.029700
     55 H25          3.3980    -5.5450     0.8110 h1         1 3KZ       0.029700
     56 H26          4.0970    -5.0330    -0.7250 h1         1 3KZ       0.029700
     57 H27         -6.7200     0.3830     0.7650 hn         1 3KZ       0.354500
     58 C31          3.7910    -4.6870     0.2630 c3         1 3KZ       0.153100
@<TRIPOS>BOND
     1     1     2 ar  
     2     1     3 ar  
     3     1    31 1   
     4     2     4 ar  
     5     2    32 1   
     6     3     7 ar  
     7     3    33 1   
     8     4    12 ar  
     9     4    34 1   
    10     5     8 ar  
    11     5    11 ar  
    12     5    35 1   
    13     6     9 ar  
    14     6    10 ar  
    15     6    36 1   
    16     7     8 1   
    17     7    12 ar  
    18     8     9 ar  
    19     9    19 1   
    20    10    11 ar  
    21    10    25 1   
    22    11    29 1   
    23    12    30 1   
    24    13    15 1   
    25    13    25 1   
    26    13    26 2   
    27    14    20 1   
    28    14    24 1   
    29    14    28 2   
    30    15    29 1   
    31    15    37 1   
    32    15    38 1   
    33    16    17 1   
    34    16    19 1   
    35    16    39 1   
    36    16    40 1   
    37    17    27 1   
    38    17    41 1   
    39    17    42 1   
    40    18    21 1   
    41    18    27 1   
    42    18    43 1   
    43    18    44 1   
    44    19    21 1   
    45    19    45 1   
    46    20    22 1   
    47    20    25 1   
    48    20    46 1   
    49    21    23 1   
    50    21    47 1   
    51    22    48 1   
    52    22    49 1   
    53    22    50 1   
    54    23    51 1   
    55    23    52 1   
    56    23    53 1   
    57    24    26 1   
    58    24    57 1   
    59    27    58 1   
    60    54    58 1   
    61    55    58 1   
    62    56    58 1   
@<TRIPOS>SUBSTRUCTURE
     1 3KZ         1 TEMP              0 ****  ****    0 ROOT
