@<TRIPOS>MOLECULE
3KZ
   58    62     1     0     0
SMALL
No Charge or Current Charge


@<TRIPOS>ATOM
      1 C26          4.4450     2.4000     1.4100 ca         1 3KZ      -0.128000
      2 C27          5.1410     2.6540     0.2160 ca         1 3KZ      -0.082000
      3 C25          3.0940     2.0120     1.3700 ca         1 3KZ      -0.074000
      4 C28          4.4830     2.5220    -1.0180 ca         1 3KZ      -0.153000
      5 C3           0.0020     2.4390    -0.1050 ca         1 3KZ      -0.076000
      6 C4          -0.7900    -0.2250     0.1820 ca         1 3KZ      -0.136000
      7 C24          2.4180     1.8670     0.1350 cp         1 3KZ      -0.075000
      8 C2           0.9870     1.4520     0.1000 cp         1 3KZ      -0.041000
      9 C1           0.5880     0.0930     0.2450 ca         1 3KZ      -0.030300
     10 C5          -1.7810     0.7620    -0.0230 ca         1 3KZ       0.261000
     11 C6          -1.3570     2.1090    -0.1750 ca         1 3KZ       0.063100
     12 C29          3.1340     2.1340    -1.0580 ca         1 3KZ       0.179000
     13 C9          -4.1040     1.4790    -0.2900 c2         1 3KZ       0.532200
     14 C14         -5.1530    -0.9900     0.7640 c          1 3KZ       0.547000
     15 C8          -3.5720     2.7810    -0.8890 c6         1 3KZ       0.125300
     16 C22          1.1890    -2.1990     1.3780 c6         1 3KZ      -0.070400
     17 C21          2.3440    -3.2100     1.5730 c6         1 3KZ       0.165800
     18 C19          3.2820    -2.6500    -0.6350 c6         1 3KZ       0.165800
     19 C12          1.6300    -1.0380     0.4390 c6         1 3KZ      -0.018400
     20 C13         -3.6880    -0.9360     0.2390 c6         1 3KZ       0.155500
     21 C18          2.1630    -1.6050    -0.9120 c6         1 3KZ      -0.048700
     22 C17         -3.5880    -1.8090    -1.0450 c3         1 3KZ      -0.115100
     23 C23          1.0510    -2.1860    -1.8380 c3         1 3KZ      -0.081100
     24 N16         -5.8810     0.1750     0.5900 ns         1 3KZ      -0.261900
     25 N10         -3.1780     0.4500    -0.0570 nh         1 3KZ      -0.783400
     26 N11         -5.3600     1.3360     0.0120 n2         1 3KZ      -0.487300
     27 N20          2.8290    -3.7440     0.2710 n3         1 3KZ      -0.715600
     28 O15         -5.6350    -1.9740     1.3140 o          1 3KZ      -0.538000
     29 O7          -2.2630     3.1300    -0.3790 os         1 3KZ      -0.321100
     30 F30          2.5230     2.0110    -2.2580 f          1 3KZ      -0.176000
     31 H1           4.9520     2.5040     2.3670 ha         1 3KZ       0.120000
     32 H2           6.1860     2.9540     0.2480 ha         1 3KZ       0.118000
     33 H3           2.5630     1.8170     2.3000 ha         1 3KZ       0.122000
     34 H4           5.0150     2.7190    -1.9450 ha         1 3KZ       0.133000
     35 H5           0.3010     3.4780    -0.2200 ha         1 3KZ       0.136000
     36 H6          -1.0870    -1.2590     0.2740 ha         1 3KZ       0.124000
     37 H7          -3.5020     2.6560    -1.9770 h1         1 3KZ       0.083200
     38 H8          -4.2680     3.6060    -0.6880 h1         1 3KZ       0.083200
     39 H9           0.3250    -2.7400     0.9750 hc         1 3KZ       0.048200
     40 H10          0.8840    -1.7970     2.3530 hc         1 3KZ       0.048200
     41 H11          3.1680    -2.7170     2.1110 h1         1 3KZ       0.030200
     42 H12          1.9880    -4.0320     2.2110 h1         1 3KZ       0.030200
     43 H13          3.6240    -3.0670    -1.5950 h1         1 3KZ       0.031700
     44 H14          4.1450    -2.1320    -0.1910 h1         1 3KZ       0.031700
     45 H15          2.4950    -0.5920     0.9450 hc         1 3KZ       0.055700
     46 H16         -3.0950    -1.4050     1.0370 h1         1 3KZ       0.093700
     47 H17          2.6150    -0.7800    -1.4770 hc         1 3KZ       0.052700
     48 H18         -2.5660    -1.8410    -1.4390 hc         1 3KZ       0.055367
     49 H19         -3.8960    -2.8420    -0.8440 hc         1 3KZ       0.055367
     50 H20         -4.2350    -1.4160    -1.8390 hc         1 3KZ       0.055367
     51 H21          0.5120    -3.0150    -1.3640 hc         1 3KZ       0.036367
     52 H22          0.3170    -1.4210    -2.1140 hc         1 3KZ       0.036367
     53 H23          1.4820    -2.5680    -2.7710 hc         1 3KZ       0.036367
     54 H24          4.7550    -4.3860     0.9250 h1         1 3KZ       0.029700
     55 H25          3.4730    -5.6140     1.0610 h1         1 3KZ       0.029700
     56 H26          4.1480    -5.2110    -0.5310 h1         1 3KZ       0.029700
     57 H27         -6.8320     0.1450     0.9500 hn         1 3KZ       0.354500
     58 C31          3.8560    -4.7930     0.4410 c3         1 3KZ       0.153100
@<TRIPOS>BOND
     1     1     2 ar  
     2     1     3 ar  
     3     1    31 1   
     4     2     4 ar  
     5     2    32 1   
     6     3     7 ar  
     7     3    33 1   
     8     4    12 ar  
     9     4    34 1   
    10     5     8 ar  
    11     5    11 ar  
    12     5    35 1   
    13     6     9 ar  
    14     6    10 ar  
    15     6    36 1   
    16     7     8 1   
    17     7    12 ar  
    18     8     9 ar  
    19     9    19 1   
    20    10    11 ar  
    21    10    25 1   
    22    11    29 1   
    23    12    30 1   
    24    13    15 1   
    25    13    25 1   
    26    13    26 2   
    27    14    20 1   
    28    14    24 1   
    29    14    28 2   
    30    15    29 1   
    31    15    37 1   
    32    15    38 1   
    33    16    17 1   
    34    16    19 1   
    35    16    39 1   
    36    16    40 1   
    37    17    27 1   
    38    17    41 1   
    39    17    42 1   
    40    18    21 1   
    41    18    27 1   
    42    18    43 1   
    43    18    44 1   
    44    19    21 1   
    45    19    45 1   
    46    20    22 1   
    47    20    25 1   
    48    20    46 1   
    49    21    23 1   
    50    21    47 1   
    51    22    48 1   
    52    22    49 1   
    53    22    50 1   
    54    23    51 1   
    55    23    52 1   
    56    23    53 1   
    57    24    26 1   
    58    24    57 1   
    59    27    58 1   
    60    54    58 1   
    61    55    58 1   
    62    56    58 1   
@<TRIPOS>SUBSTRUCTURE
     1 3KZ         1 TEMP              0 ****  ****    0 ROOT
