@<TRIPOS>MOLECULE
3L0
   57    61     1     0     0
SMALL
No Charge or Current Charge


@<TRIPOS>ATOM
      1 C1           2.9740     3.8240    -2.3050 c3         1 3L0       0.154100
      2 N2           2.3470     3.4620    -1.0320 nq         1 3L0      -0.712600
      3 C3           3.1090     2.7280     0.0260 cy         1 3L0       0.145800
      4 C4           1.6980     2.2730     0.5810 cy         1 3L0       0.193200
      5 C5           1.0160     3.2450     1.5790 c3         1 3L0      -0.102100
      6 C6           1.2890     2.4090    -0.9460 cy         1 3L0       0.145800
      7 N7           1.6510     0.9070     1.1690 nh         1 3L0      -0.807400
      8 C8           2.4400     0.5730     2.3810 c3         1 3L0       0.199100
      9 C9           0.8090    -0.1080     0.6310 ca         1 3L0       0.321000
     10 C10         -0.5500     0.2050     0.4350 ca         1 3L0      -0.190000
     11 C11         -1.4760    -0.7430    -0.0440 ca         1 3L0       0.277000
     12 N12         -2.8470    -0.4140    -0.2860 nh         1 3L0      -0.782400
     13 C13         -3.3550     0.9990    -0.1700 c6         1 3L0       0.155500
     14 C15         -3.6880     1.3080     1.3170 c3         1 3L0      -0.115100
     15 C16         -4.6110     1.3100    -1.0350 c          1 3L0       0.547000
     16 O17         -4.9900     2.4480    -1.2870 o          1 3L0      -0.537000
     17 N18         -5.2700     0.1980    -1.5330 ns         1 3L0      -0.262900
     18 N19         -4.8480    -1.1160    -1.3140 n2         1 3L0      -0.485300
     19 C20         -3.7200    -1.4140    -0.7410 c2         1 3L0       0.531200
     20 C21         -3.2780    -2.8670    -0.5620 c6         1 3L0       0.124300
     21 O22         -1.8570    -3.0400    -0.7800 os         1 3L0      -0.319100
     22 C23         -1.0090    -2.0560    -0.3140 ca         1 3L0       0.042100
     23 C24          0.3420    -2.3790    -0.1400 ca         1 3L0      -0.070000
     24 C25          1.2720    -1.4240     0.3250 cp         1 3L0      -0.065000
     25 C26          2.7050    -1.8300     0.4470 cp         1 3L0      -0.028000
     26 C27          3.7220    -1.1330    -0.2470 ca         1 3L0      -0.094000
     27 C28          5.0680    -1.5180    -0.1360 ca         1 3L0      -0.115500
     28 C29          5.4200    -2.6170     0.6660 ca         1 3L0      -0.107000
     29 C30          4.4230    -3.3310     1.3520 ca         1 3L0      -0.115500
     30 C31          3.0770    -2.9430     1.2390 ca         1 3L0      -0.094000
     31 H1           3.3930     2.9290    -2.7860 h1         1 3L0       0.033367
     32 H2           2.2260     4.2730    -2.9720 h1         1 3L0       0.033367
     33 H3           3.7790     4.5480    -2.1290 h1         1 3L0       0.033367
     34 H5           3.7250     1.9000    -0.3410 h1         1 3L0       0.055200
     35 H6           3.6930     3.3480     0.7160 h1         1 3L0       0.055200
     36 H7           1.6170     3.3740     2.4860 hc         1 3L0       0.043700
     37 H8           0.8850     4.2400     1.1400 hc         1 3L0       0.043700
     38 H9           0.0240     2.8920     1.8830 hc         1 3L0       0.043700
     39 H10          0.2600     2.7450    -1.1170 h1         1 3L0       0.055200
     40 H11          1.4920     1.5070    -1.5370 h1         1 3L0       0.055200
     41 H12          2.2970     1.3270     3.1660 h1         1 3L0       0.037033
     42 H13          2.1280    -0.3940     2.7970 h1         1 3L0       0.037033
     43 H14          3.5090     0.5160     2.1390 h1         1 3L0       0.037033
     44 H15         -0.8790     1.2040     0.6790 ha         1 3L0       0.125000
     45 H16         -2.5970     1.7140    -0.5220 h1         1 3L0       0.094700
     46 H17         -2.8250     1.1450     1.9720 hc         1 3L0       0.054700
     47 H18         -4.0030     2.3510     1.4420 hc         1 3L0       0.054700
     48 H19         -4.5020     0.6680     1.6790 hc         1 3L0       0.054700
     49 H20         -6.0800     0.4030    -2.1140 hn         1 3L0       0.354500
     50 H21         -3.5150    -3.1760     0.4640 h1         1 3L0       0.081700
     51 H22         -3.8290    -3.5220    -1.2490 h1         1 3L0       0.081700
     52 H23          0.6790    -3.3840    -0.3790 ha         1 3L0       0.135000
     53 H24          3.4560    -0.2900    -0.8790 ha         1 3L0       0.116500
     54 H25          5.8380    -0.9680    -0.6730 ha         1 3L0       0.112000
     55 H26          6.4620    -2.9170     0.7520 ha         1 3L0       0.112000
     56 H27          4.6930    -4.1840     1.9700 ha         1 3L0       0.112000
     57 H28          2.3130    -3.5000     1.7770 ha         1 3L0       0.116500
@<TRIPOS>BOND
     1     1     2 1   
     2     1    31 1   
     3     1    32 1   
     4     1    33 1   
     5     2     3 1   
     6     2     6 1   
     7     3     4 1   
     8     3    34 1   
     9     3    35 1   
    10     4     5 1   
    11     4     6 1   
    12     4     7 1   
    13     5    36 1   
    14     5    37 1   
    15     5    38 1   
    16     6    39 1   
    17     6    40 1   
    18     7     8 1   
    19     7     9 1   
    20     8    41 1   
    21     8    42 1   
    22     8    43 1   
    23     9    10 ar  
    24     9    24 ar  
    25    10    11 ar  
    26    10    44 1   
    27    11    12 1   
    28    11    22 ar  
    29    12    13 1   
    30    12    19 1   
    31    13    14 1   
    32    13    15 1   
    33    13    45 1   
    34    14    46 1   
    35    14    47 1   
    36    14    48 1   
    37    15    16 2   
    38    15    17 1   
    39    17    18 1   
    40    17    49 1   
    41    18    19 2   
    42    19    20 1   
    43    20    21 1   
    44    20    50 1   
    45    20    51 1   
    46    21    22 1   
    47    22    23 ar  
    48    23    24 ar  
    49    23    52 1   
    50    24    25 1   
    51    25    26 ar  
    52    25    30 ar  
    53    26    27 ar  
    54    26    53 1   
    55    27    28 ar  
    56    27    54 1   
    57    28    29 ar  
    58    28    55 1   
    59    29    30 ar  
    60    29    56 1   
    61    30    57 1   
@<TRIPOS>SUBSTRUCTURE
     1 3L0         1 TEMP              0 ****  ****    0 ROOT
