@<TRIPOS>MOLECULE
3L0
   57    61     1     0     0
SMALL
bcc


@<TRIPOS>ATOM
      1 C1           3.0880     3.6100    -2.0840 c3         1 3L0       0.154100
      2 N2           2.3160     3.5000    -0.8770 nq         1 3L0      -0.712600
      3 C3           2.9510     2.9320     0.3070 cy         1 3L0       0.145800
      4 C4           1.6140     2.2320     0.6550 cy         1 3L0       0.193200
      5 C5           0.8020     3.0650     1.6450 c3         1 3L0      -0.102100
      6 C6           1.2520     2.5010    -0.8220 cy         1 3L0       0.145800
      7 N7           1.7840     0.8360     0.9980 nh         1 3L0      -0.669000
      8 C8           2.4090     0.6140     2.2860 c3         1 3L0       0.199100
      9 C9           0.8440    -0.1060     0.5700 ca         1 3L0       0.182600
     10 C10         -0.4960     0.2310     0.3690 ca         1 3L0      -0.208000
     11 C11         -1.4310    -0.6990    -0.0700 ca         1 3L0       0.138600
     12 N12         -2.7470    -0.3570    -0.3940 nh         1 3L0      -0.644000
     13 C13         -3.2160     1.0180    -0.3270 c6         1 3L0       0.155500
     14 C15         -3.6070     1.4410     1.0900 c3         1 3L0      -0.115100
     15 C16         -4.4050     1.1990    -1.2510 c          1 3L0       0.689500
     16 O17         -4.7190     2.2970    -1.6760 o          1 3L0      -0.612500
     17 N18         -5.1110     0.0830    -1.5050 ns         1 3L0      -0.329900
     18 N19         -4.8200    -1.1840    -1.0820 n2         1 3L0      -0.485300
     19 C20         -3.6650    -1.3540    -0.5730 c2         1 3L0       0.531200
     20 C21         -3.2260    -2.7180    -0.1460 c6         1 3L0       0.101100
     21 O22         -1.9260    -2.9620    -0.6520 os         1 3L0      -0.295900
     22 C23         -1.0280    -2.0250    -0.2450 ca         1 3L0       0.042100
     23 C24          0.2930    -2.3730    -0.0510 ca         1 3L0      -0.088000
     24 C25          1.2510    -1.4280     0.3090 cp         1 3L0      -0.065000
     25 C26          2.6720    -1.8410     0.3520 cp         1 3L0      -0.028000
     26 C27          3.6280    -1.1650    -0.4080 ca         1 3L0      -0.112000
     27 C28          4.9510    -1.5790    -0.4080 ca         1 3L0      -0.133500
     28 C29          5.3440    -2.6710     0.3580 ca         1 3L0      -0.125000
     29 C30          4.4020    -3.3500     1.1170 ca         1 3L0      -0.133500
     30 C31          3.0750    -2.9380     1.1120 ca         1 3L0      -0.112000
     31 H1           3.5480     2.6590    -2.3960 h1         1 3L0       0.033367
     32 H2           2.4580     3.9610    -2.9020 h1         1 3L0       0.033367
     33 H3           3.8890     4.3400    -1.9490 h1         1 3L0       0.033367
     34 H5           3.7290     2.1880     0.0840 h1         1 3L0       0.055200
     35 H6           3.3530     3.6620     1.0160 h1         1 3L0       0.055200
     36 H7           1.2660     3.0670     2.6320 hc         1 3L0       0.043700
     37 H8           0.7470     4.0990     1.3040 hc         1 3L0       0.043700
     38 H9          -0.2210     2.7060     1.7660 hc         1 3L0       0.043700
     39 H10          0.2480     2.8780    -1.0420 h1         1 3L0       0.055200
     40 H11          1.4420     1.6230    -1.4540 h1         1 3L0       0.055200
     41 H12          1.7320     0.7930     3.1300 h1         1 3L0       0.037033
     42 H13          2.7820    -0.4040     2.3690 h1         1 3L0       0.037033
     43 H14          3.2650     1.2810     2.3940 h1         1 3L0       0.037033
     44 H15         -0.8130     1.2420     0.5690 ha         1 3L0       0.143000
     45 H16         -2.4280     1.6680    -0.7110 h1         1 3L0       0.094700
     46 H17         -2.7770     1.3130     1.7830 hc         1 3L0       0.054700
     47 H18         -3.8980     2.4900     1.1040 hc         1 3L0       0.054700
     48 H19         -4.4440     0.8460     1.4570 hc         1 3L0       0.054700
     49 H20         -5.9620     0.1560    -2.0440 hn         1 3L0       0.354500
     50 H21         -3.2280    -2.7880     0.9480 h1         1 3L0       0.081700
     51 H22         -3.8940    -3.4740    -0.5500 h1         1 3L0       0.081700
     52 H23          0.5940    -3.3940    -0.2500 ha         1 3L0       0.153000
     53 H24          3.3310    -0.3120    -1.0040 ha         1 3L0       0.134500
     54 H25          5.6770    -1.0520    -1.0140 ha         1 3L0       0.130000
     55 H26          6.3790    -2.9870     0.3630 ha         1 3L0       0.130000
     56 H27          4.6970    -4.2010     1.7170 ha         1 3L0       0.130000
     57 H28          2.3500    -3.4650     1.7210 ha         1 3L0       0.134500
@<TRIPOS>BOND
     1     1     2 1   
     2     1    31 1   
     3     1    32 1   
     4     1    33 1   
     5     2     3 1   
     6     2     6 1   
     7     3     4 1   
     8     3    34 1   
     9     3    35 1   
    10     4     5 1   
    11     4     6 1   
    12     4     7 1   
    13     5    36 1   
    14     5    37 1   
    15     5    38 1   
    16     6    39 1   
    17     6    40 1   
    18     7     8 1   
    19     7     9 1   
    20     8    41 1   
    21     8    42 1   
    22     8    43 1   
    23     9    10 ar  
    24     9    24 ar  
    25    10    11 ar  
    26    10    44 1   
    27    11    12 1   
    28    11    22 ar  
    29    12    13 1   
    30    12    19 1   
    31    13    14 1   
    32    13    15 1   
    33    13    45 1   
    34    14    46 1   
    35    14    47 1   
    36    14    48 1   
    37    15    16 2   
    38    15    17 1   
    39    17    18 1   
    40    17    49 1   
    41    18    19 2   
    42    19    20 1   
    43    20    21 1   
    44    20    50 1   
    45    20    51 1   
    46    21    22 1   
    47    22    23 ar  
    48    23    24 ar  
    49    23    52 1   
    50    24    25 1   
    51    25    26 ar  
    52    25    30 ar  
    53    26    27 ar  
    54    26    53 1   
    55    27    28 ar  
    56    27    54 1   
    57    28    29 ar  
    58    28    55 1   
    59    29    30 ar  
    60    29    56 1   
    61    30    57 1   
@<TRIPOS>SUBSTRUCTURE
     1 3L0         1 TEMP              0 ****  ****    0 ROOT
