@<TRIPOS>MOLECULE
3L1
   31    33     1     0     0
SMALL
No Charge or Current Charge


@<TRIPOS>ATOM
      1 N6           4.2790     1.8200    -0.2150 nv         1 3L1      -1.065900
      2 C6           3.4460     0.7450    -0.2130 ca         1 3L1       0.451900
      3 N1           3.9820    -0.4150    -0.6200 nb         1 3L1      -0.303000
      4 C2           3.1500    -1.4840    -0.6170 ca         1 3L1       0.182900
      5 N3           1.8470    -1.4940    -0.2510 nb         1 3L1      -0.223000
      6 C4           1.3360    -0.3110     0.1480 ca         1 3L1       0.135500
      7 C5           2.0950     0.8320     0.1850 ca         1 3L1      -0.099600
      8 N7           1.3730     1.9350     0.6260 nc         1 3L1      -0.556100
      9 C8           0.1580     1.4000     0.8540 cd         1 3L1       0.414700
     10 N9           0.0750     0.0230     0.5700 na         1 3L1      -0.290300
     11 C1          -1.0850    -0.8500     0.7320 c5         1 3L1       0.316300
     12 O4          -2.2250    -0.0820     1.1860 os         1 3L1      -0.433000
     13 C7          -1.5490    -1.5950    -0.5590 c5         1 3L1      -0.168400
     14 C3          -3.0920    -1.4610    -0.5110 c5         1 3L1       0.140300
     15 O3          -3.6780    -2.4960     0.2890 oh         1 3L1      -0.705000
     16 C9          -3.2230    -0.0460     0.1330 c5         1 3L1       0.165300
     17 C10         -2.9550     1.1350    -0.8550 c3         1 3L1       0.148600
     18 O5          -3.2300     2.4060    -0.2400 oh         1 3L1      -0.697000
     19 HN6          5.1240     1.7660    -0.7780 hn         1 3L1       0.506000
     20 HN6A         3.8480     2.7370    -0.1240 hn         1 3L1       0.506000
     21 H2           3.5730    -2.4330    -0.9430 h5         1 3L1       0.046100
     22 H8          -0.7020     1.9480     1.2230 h5         1 3L1       0.064800
     23 H1          -0.8100    -1.5740     1.5110 h2         1 3L1       0.110700
     24 H6          -1.1420    -1.1190    -1.4590 hc         1 3L1       0.071200
     25 H2'A        -1.2090    -2.6360    -0.5780 hc         1 3L1       0.071200
     26 H3          -3.5270    -1.4780    -1.5210 h1         1 3L1       0.053700
     27 HO3         -3.6040    -3.3360    -0.2220 ho         1 3L1       0.511000
     28 H4          -4.2170     0.0950     0.5760 h1         1 3L1       0.103700
     29 H5          -1.9180     1.1020    -1.2110 h1         1 3L1       0.018700
     30 H5'A        -3.6040     1.0020    -1.7310 h1         1 3L1       0.018700
     31 HO5         -3.1010     3.0980    -0.9310 ho         1 3L1       0.504000
@<TRIPOS>BOND
     1     1     2 1   
     2     1    19 1   
     3     1    20 1   
     4     2     3 ar  
     5     2     7 ar  
     6     3     4 ar  
     7     4     5 ar  
     8     4    21 1   
     9     5     6 ar  
    10     6     7 ar  
    11     6    10 1   
    12     7     8 1   
    13     8     9 2   
    14     9    10 1   
    15     9    22 1   
    16    10    11 1   
    17    11    12 1   
    18    11    13 1   
    19    11    23 1   
    20    12    16 1   
    21    13    14 1   
    22    13    24 1   
    23    13    25 1   
    24    14    15 1   
    25    14    16 1   
    26    14    26 1   
    27    15    27 1   
    28    16    17 1   
    29    16    28 1   
    30    17    18 1   
    31    17    29 1   
    32    17    30 1   
    33    18    31 1   
@<TRIPOS>SUBSTRUCTURE
     1 3L1         1 TEMP              0 ****  ****    0 ROOT
