@<TRIPOS>MOLECULE
3L1
   31    33     1     0     0
SMALL
bcc


@<TRIPOS>ATOM
      1 N6           4.5610     1.5820    -0.2780 nv         1 3L1      -0.955500
      2 C6           3.6980     0.6090     0.0190 ca         1 3L1       0.780200
      3 N1           4.1520    -0.5280     0.5570 nb         1 3L1      -0.829000
      4 C2           3.2860    -1.4940     0.8560 ca         1 3L1       0.708900
      5 N3           1.9760    -1.5030     0.6890 nb         1 3L1      -0.749000
      6 C4           1.5390    -0.3640     0.1550 ca         1 3L1       0.463800
      7 C5           2.3140     0.7270    -0.2030 ca         1 3L1      -0.230200
      8 N7           1.5330     1.7320    -0.7150 nc         1 3L1      -0.556100
      9 C8           0.3250     1.2550    -0.6710 cd         1 3L1       0.414700
     10 N9           0.2580    -0.0130    -0.1620 na         1 3L1      -0.261000
     11 C1          -0.9310    -0.8080     0.0450 c5         1 3L1       0.263800
     12 O4          -1.8190    -0.1020     0.8750 os         1 3L1      -0.386600
     13 C7          -1.7010    -1.1190    -1.2330 c5         1 3L1      -0.168400
     14 C3          -3.1240    -1.2550    -0.7110 c5         1 3L1       0.117100
     15 O3          -3.3420    -2.4980    -0.0860 oh         1 3L1      -0.582800
     16 C9          -3.1520    -0.1800     0.3730 c5         1 3L1       0.142100
     17 C10         -3.6190     1.1590    -0.1590 c3         1 3L1       0.125400
     18 O5          -3.5310     2.1090     0.8740 oh         1 3L1      -0.574800
     19 HN6          5.5480     1.4430    -0.1440 hn         1 3L1       0.450800
     20 HN6A         4.2570     2.4240    -0.7350 hn         1 3L1       0.450800
     21 H2           3.7190    -2.3880     1.2910 h5         1 3L1       0.046100
     22 H8          -0.5590     1.7880    -0.9890 h5         1 3L1       0.064800
     23 H1          -0.5910    -1.7260     0.5330 h2         1 3L1       0.110700
     24 H6          -1.6300    -0.2960    -1.9480 hc         1 3L1       0.071200
     25 H2'A        -1.3310    -2.0150    -1.7310 hc         1 3L1       0.071200
     26 H3          -3.8680    -1.0630    -1.4940 h1         1 3L1       0.053700
     27 HO3         -3.2200    -3.1930    -0.7410 ho         1 3L1       0.412000
     28 H4          -3.8090    -0.4820     1.1970 h1         1 3L1       0.103700
     29 H5          -3.0190     1.4520    -1.0320 h1         1 3L1       0.018700
     30 H5'A        -4.6500     1.0350    -0.5140 h1         1 3L1       0.018700
     31 HO5         -3.8530     2.9490     0.5360 ho         1 3L1       0.405000
@<TRIPOS>BOND
     1     1     2 1   
     2     1    19 1   
     3     1    20 1   
     4     2     3 ar  
     5     2     7 ar  
     6     3     4 ar  
     7     4     5 ar  
     8     4    21 1   
     9     5     6 ar  
    10     6     7 ar  
    11     6    10 1   
    12     7     8 1   
    13     8     9 2   
    14     9    10 1   
    15     9    22 1   
    16    10    11 1   
    17    11    12 1   
    18    11    13 1   
    19    11    23 1   
    20    12    16 1   
    21    13    14 1   
    22    13    24 1   
    23    13    25 1   
    24    14    15 1   
    25    14    16 1   
    26    14    26 1   
    27    15    27 1   
    28    16    17 1   
    29    16    28 1   
    30    17    18 1   
    31    17    29 1   
    32    17    30 1   
    33    18    31 1   
@<TRIPOS>SUBSTRUCTURE
     1 3L1         1 TEMP              0 ****  ****    0 ROOT
