@<TRIPOS>MOLECULE
3L2
   70    74     1     0     0
SMALL
abcg2


@<TRIPOS>ATOM
      1 O           29.1220     8.8210    65.9210 os         1 3L2      -0.460100
      2 C1          27.3230     6.6090    65.6900 c3         1 3L2      -0.075700
      3 O6          26.3740     3.6050    64.4130 o          1 3L2      -0.495000
      4 C23         26.7420     4.7280    64.1420 c          1 3L2       0.563100
      5 C24         26.2090     5.9690    64.8350 c3         1 3L2       0.117300
      6 O7          25.0530     5.6430    65.5850 oh         1 3L2      -0.651000
      7 C           27.7540     5.6960    66.8370 c3         1 3L2      -0.096100
      8 O5          27.6690     5.0400    63.2430 os         1 3L2      -0.439100
      9 C22         28.3970     3.9770    62.5850 c3         1 3L2       0.161600
     10 C15         28.6910     4.3500    61.1260 c6         1 3L2      -0.062000
     11 C20         29.1000     3.0260    60.4220 c6         1 3L2       0.207500
     12 C19         27.9530     2.0880    60.1930 c2         1 3L2      -0.232200
     13 C18         26.6690     2.4410    60.2460 c2         1 3L2      -0.083400
     14 C21         25.5560     1.4560    60.0500 c3         1 3L2      -0.057900
     15 C17         26.2590     3.8550    60.5460 c6         1 3L2      -0.049200
     16 C16         27.4090     4.8560    60.4400 c6         1 3L2      -0.060400
     17 O4          29.7000     3.2550    59.1300 os         1 3L2      -0.443000
     18 C12         30.7520     4.2210    59.1310 c5         1 3L2       0.182300
     19 C11         31.7800     3.9910    60.2430 c5         1 3L2      -0.115400
     20 C14         29.8750     5.3960    61.0120 c5         1 3L2      -0.030000
     21 C25         29.5940     6.7140    61.7260 c3         1 3L2      -0.079100
     22 C13         30.1780     5.5620    59.5230 cx         1 3L2       0.059000
     23 O8          30.9460     6.7060    59.1080 op         1 3L2      -0.437000
     24 C26         29.6070     6.5220    58.5960 cx         1 3L2       0.109600
     25 C10         31.2070     4.7100    61.4800 c5         1 3L2       0.170300
     26 O3          32.1840     5.6960    61.8960 os         1 3L2      -0.440100
     27 C9          32.3350     5.9470    63.2070 c          1 3L2       0.593300
     28 O2          31.7000     5.4000    64.0820 o          1 3L2      -0.481000
     29 C8          33.4260     6.9330    63.3990 ce         1 3L2      -0.246200
     30 C7          33.5380     7.7950    64.4150 cf         1 3L2      -0.120000
     31 C6          32.5710     8.0620    65.4740 cf         1 3L2      -0.118000
     32 C5          31.2860     8.3530    65.2660 ce         1 3L2      -0.243200
     33 C4          30.3550     8.5760    66.3880 c          1 3L2       0.598300
     34 O1          30.6390     8.5180    67.5680 o          1 3L2      -0.488000
     35 C3          27.9990     8.7810    66.8370 c3         1 3L2       0.164600
     36 C2          26.8850     8.0010    66.1610 c3         1 3L2      -0.077400
     37 H1          28.1700     6.7440    65.0150 hc         1 3L2       0.073700
     38 H2          25.9190     6.6830    64.0590 h1         1 3L2       0.084700
     39 H3          25.0720     4.6860    65.7400 ho         1 3L2       0.468000
     40 H4          28.5940     6.1240    67.3840 hc         1 3L2       0.043033
     41 H5          26.9360     5.5400    67.5430 hc         1 3L2       0.043033
     42 H6          28.0750     4.7190    66.4690 hc         1 3L2       0.043033
     43 H7          27.8030     3.0690    62.6330 h1         1 3L2       0.069200
     44 H8          29.3060     3.8210    63.1630 h1         1 3L2       0.069200
     45 H9          29.8370     2.5100    61.0490 h1         1 3L2       0.042700
     46 H10         28.2240     1.0610    59.9710 ha         1 3L2       0.185000
     47 H11         24.9080     1.4330    60.9320 hc         1 3L2       0.045367
     48 H12         24.9250     1.7500    59.2060 hc         1 3L2       0.045367
     49 H13         25.9340     0.4500    59.8710 hc         1 3L2       0.045367
     50 H14         25.4630     4.1490    59.8560 hc         1 3L2       0.053700
     51 H15         25.7990     3.8810    61.5400 hc         1 3L2       0.053700
     52 H16         27.6260     5.0190    59.3860 hc         1 3L2       0.054700
     53 H17         27.1010     5.8130    60.8570 hc         1 3L2       0.054700
     54 H18         31.1780     4.2100    58.1300 h1         1 3L2       0.100700
     55 H19         31.9700     2.9340    60.4210 hc         1 3L2       0.076200
     56 H20         32.7210     4.4630    59.9620 hc         1 3L2       0.076200
     57 H21         29.5660     6.5850    62.8050 hc         1 3L2       0.051033
     58 H22         30.3690     7.4370    61.4850 hc         1 3L2       0.051033
     59 H23         28.6380     7.1300    61.4150 hc         1 3L2       0.051033
     60 H24         28.8860     7.2520    58.9490 h1         1 3L2       0.080700
     61 H25         29.5480     6.2740    57.5410 h1         1 3L2       0.080700
     62 H26         31.0510     4.0410    62.3180 h1         1 3L2       0.074700
     63 H27         34.2010     6.9070    62.6430 ha         1 3L2       0.205000
     64 H28         34.4550     8.3760    64.4720 ha         1 3L2       0.191000
     65 H29         32.9540     8.0820    66.4910 ha         1 3L2       0.206000
     66 H30         30.8690     8.4000    64.2690 ha         1 3L2       0.200000
     67 H31         27.6980     9.8090    67.0380 h1         1 3L2       0.059700
     68 H32         28.3220     8.3240    67.7690 h1         1 3L2       0.059700
     69 H33         26.5230     8.5700    65.3010 hc         1 3L2       0.058700
     70 H34         26.0550     7.9210    66.8680 hc         1 3L2       0.058700
@<TRIPOS>BOND
     1     1    33 1   
     2     1    35 1   
     3     2     5 1   
     4     2     7 1   
     5     2    36 1   
     6     2    37 1   
     7     3     4 2   
     8     4     5 1   
     9     4     8 1   
    10     5     6 1   
    11     5    38 1   
    12     6    39 1   
    13     7    40 1   
    14     7    41 1   
    15     7    42 1   
    16     8     9 1   
    17     9    10 1   
    18     9    43 1   
    19     9    44 1   
    20    10    11 1   
    21    10    16 1   
    22    10    20 1   
    23    11    12 1   
    24    11    17 1   
    25    11    45 1   
    26    12    13 2   
    27    12    46 1   
    28    13    14 1   
    29    13    15 1   
    30    14    47 1   
    31    14    48 1   
    32    14    49 1   
    33    15    16 1   
    34    15    50 1   
    35    15    51 1   
    36    16    52 1   
    37    16    53 1   
    38    17    18 1   
    39    18    19 1   
    40    18    22 1   
    41    18    54 1   
    42    19    25 1   
    43    19    55 1   
    44    19    56 1   
    45    20    21 1   
    46    20    22 1   
    47    20    25 1   
    48    21    57 1   
    49    21    58 1   
    50    21    59 1   
    51    22    23 1   
    52    22    24 1   
    53    23    24 1   
    54    24    60 1   
    55    24    61 1   
    56    25    26 1   
    57    25    62 1   
    58    26    27 1   
    59    27    28 2   
    60    27    29 1   
    61    29    30 2   
    62    29    63 1   
    63    30    31 1   
    64    30    64 1   
    65    31    32 2   
    66    31    65 1   
    67    32    33 1   
    68    32    66 1   
    69    33    34 2   
    70    35    36 1   
    71    35    67 1   
    72    35    68 1   
    73    36    69 1   
    74    36    70 1   
@<TRIPOS>SUBSTRUCTURE
     1 3L2         1 TEMP              0 ****  ****    0 ROOT
