@<TRIPOS>MOLECULE
3L2
   70    74     1     0     0
SMALL
No Charge or Current Charge


@<TRIPOS>ATOM
      1 O           29.1460     8.7830    65.9780 os         1 3L2      -0.460100
      2 C1          27.3460     6.5020    65.9100 c3         1 3L2      -0.075700
      3 O6          26.6030     3.3880    64.7320 o          1 3L2      -0.495000
      4 C23         26.7840     4.5380    64.3480 c          1 3L2       0.563100
      5 C24         26.2280     5.7960    65.0850 c3         1 3L2       0.117300
      6 O7          25.0870     5.4940    65.9310 oh         1 3L2      -0.651000
      7 C           27.8560     5.6400    67.0990 c3         1 3L2      -0.096100
      8 O5          27.4910     4.8730    63.2200 os         1 3L2      -0.439100
      9 C22         28.1760     3.8220    62.5130 c3         1 3L2       0.161600
     10 C15         28.6160     4.2780    61.0690 c6         1 3L2      -0.062000
     11 C20         29.0030     2.9470    60.3130 c6         1 3L2       0.207500
     12 C19         27.8190     2.1000    59.8670 c2         1 3L2      -0.232200
     13 C18         26.5420     2.5140    59.8390 c2         1 3L2      -0.083400
     14 C21         25.3870     1.6260    59.4180 c3         1 3L2      -0.057900
     15 C17         26.1480     3.9220    60.2590 c6         1 3L2      -0.049200
     16 C16         27.3620     4.8810    60.3210 c6         1 3L2      -0.060400
     17 O4          29.8580     3.1540    59.1630 os         1 3L2      -0.443000
     18 C12         30.9770     4.0750    59.2800 c5         1 3L2       0.182300
     19 C11         31.7930     3.7010    60.5560 c5         1 3L2      -0.115400
     20 C14         29.8790     5.2870    61.0940 c5         1 3L2      -0.030000
     21 C25         29.5150     6.6680    61.7440 c3         1 3L2      -0.079100
     22 C13         30.4480     5.4450    59.6690 cx         1 3L2       0.059000
     23 O8          31.0740     6.6590    59.1940 op         1 3L2      -0.437000
     24 C26         29.7890     6.2910    58.6160 cx         1 3L2       0.109600
     25 C10         31.1960     4.6030    61.7040 c5         1 3L2       0.170300
     26 O3          32.2390     5.5910    61.9510 os         1 3L2      -0.440100
     27 C9          32.2380     6.1930    63.1860 c          1 3L2       0.593300
     28 O2          31.4950     5.8930    64.1100 o          1 3L2      -0.481000
     29 C8          33.3390     7.2020    63.2580 ce         1 3L2      -0.246200
     30 C7          33.5680     8.1620    64.2100 cf         1 3L2      -0.120000
     31 C6          32.7110     8.5380    65.3300 cf         1 3L2      -0.118000
     32 C5          31.3510     8.6100    65.2680 ce         1 3L2      -0.243200
     33 C4          30.4370     8.9740    66.3770 c          1 3L2       0.598300
     34 O1          30.7900     9.2450    67.5160 o          1 3L2      -0.488000
     35 C3          28.0950     8.7770    66.9570 c3         1 3L2       0.164600
     36 C2          26.9390     7.9440    66.3530 c3         1 3L2      -0.077400
     37 H1          28.1920     6.6060    65.2190 hc         1 3L2       0.073700
     38 H2          25.9190     6.4850    64.2870 h1         1 3L2       0.084700
     39 H3          25.2640     4.6180    66.3440 ho         1 3L2       0.468000
     40 H4          28.7560     6.0800    67.5450 hc         1 3L2       0.043033
     41 H5          27.0940     5.5570    67.8840 hc         1 3L2       0.043033
     42 H6          28.1230     4.6290    66.7720 hc         1 3L2       0.043033
     43 H7          27.5160     2.9520    62.3990 h1         1 3L2       0.069200
     44 H8          29.0420     3.4750    63.0900 h1         1 3L2       0.069200
     45 H9          29.5700     2.3230    61.0180 h1         1 3L2       0.042700
     46 H10         28.0740     1.0840    59.5640 ha         1 3L2       0.185000
     47 H11         24.6560     1.5220    60.2280 hc         1 3L2       0.045367
     48 H12         24.8660     2.0430    58.5480 hc         1 3L2       0.045367
     49 H13         25.7270     0.6190    59.1480 hc         1 3L2       0.045367
     50 H14         25.4180     4.3290    59.5460 hc         1 3L2       0.053700
     51 H15         25.6330     3.8860    61.2290 hc         1 3L2       0.053700
     52 H16         27.6170     5.1170    59.2830 hc         1 3L2       0.054700
     53 H17         27.0270     5.8200    60.7780 hc         1 3L2       0.054700
     54 H18         31.5780     4.0590    58.3600 h1         1 3L2       0.100700
     55 H19         31.7410     2.6320    60.7890 hc         1 3L2       0.076200
     56 H20         32.8570     3.9110    60.3980 hc         1 3L2       0.076200
     57 H21         29.2730     6.5730    62.8060 hc         1 3L2       0.051033
     58 H22         30.3440     7.3800    61.6700 hc         1 3L2       0.051033
     59 H23         28.6680     7.1570    61.2540 hc         1 3L2       0.051033
     60 H24         28.9660     6.9530    58.8820 h1         1 3L2       0.080700
     61 H25         29.8230     5.9660    57.5770 h1         1 3L2       0.080700
     62 H26         31.0200     4.0140    62.6140 h1         1 3L2       0.074700
     63 H27         34.0530     7.1240    62.4400 ha         1 3L2       0.205000
     64 H28         34.4870     8.7470    64.1150 ha         1 3L2       0.191000
     65 H29         33.2100     8.8300    66.2590 ha         1 3L2       0.206000
     66 H30         30.8500     8.3710    64.3340 ha         1 3L2       0.200000
     67 H31         27.7590     9.7980    67.1820 h1         1 3L2       0.059700
     68 H32         28.4210     8.3100    67.8950 h1         1 3L2       0.059700
     69 H33         26.5410     8.4890    65.4880 hc         1 3L2       0.058700
     70 H34         26.1240     7.8880    67.0860 hc         1 3L2       0.058700
@<TRIPOS>BOND
     1     1    33 1   
     2     1    35 1   
     3     2     5 1   
     4     2     7 1   
     5     2    36 1   
     6     2    37 1   
     7     3     4 2   
     8     4     5 1   
     9     4     8 1   
    10     5     6 1   
    11     5    38 1   
    12     6    39 1   
    13     7    40 1   
    14     7    41 1   
    15     7    42 1   
    16     8     9 1   
    17     9    10 1   
    18     9    43 1   
    19     9    44 1   
    20    10    11 1   
    21    10    16 1   
    22    10    20 1   
    23    11    12 1   
    24    11    17 1   
    25    11    45 1   
    26    12    13 2   
    27    12    46 1   
    28    13    14 1   
    29    13    15 1   
    30    14    47 1   
    31    14    48 1   
    32    14    49 1   
    33    15    16 1   
    34    15    50 1   
    35    15    51 1   
    36    16    52 1   
    37    16    53 1   
    38    17    18 1   
    39    18    19 1   
    40    18    22 1   
    41    18    54 1   
    42    19    25 1   
    43    19    55 1   
    44    19    56 1   
    45    20    21 1   
    46    20    22 1   
    47    20    25 1   
    48    21    57 1   
    49    21    58 1   
    50    21    59 1   
    51    22    23 1   
    52    22    24 1   
    53    23    24 1   
    54    24    60 1   
    55    24    61 1   
    56    25    26 1   
    57    25    62 1   
    58    26    27 1   
    59    27    28 2   
    60    27    29 1   
    61    29    30 2   
    62    29    63 1   
    63    30    31 1   
    64    30    64 1   
    65    31    32 2   
    66    31    65 1   
    67    32    33 1   
    68    32    66 1   
    69    33    34 2   
    70    35    36 1   
    71    35    67 1   
    72    35    68 1   
    73    36    69 1   
    74    36    70 1   
@<TRIPOS>SUBSTRUCTURE
     1 3L2         1 TEMP              0 ****  ****    0 ROOT
