@<TRIPOS>MOLECULE
3L3
   45    46     1     0     0
SMALL
No Charge or Current Charge


@<TRIPOS>ATOM
      1 OAE         -6.3820    -3.8710     1.3670 o          1 3L3      -0.954500
      2 PBC         -6.7590    -2.4560     1.0890 p5         1 3L3       1.178100
      3 OAF         -7.9240    -2.3050     0.1740 o          1 3L3      -0.954500
      4 OAC         -7.0930    -1.6590     2.3010 o          1 3L3      -0.954500
      5 CAP         -5.3530    -1.5650     0.2640 c2         1 3L3      -0.295600
      6 CAK         -4.1560    -2.0710    -0.0700 c2         1 3L3      -0.120900
      7 OAU         -3.1960    -1.3110    -0.6830 os         1 3L3      -0.342100
      8 CAJ         -1.9520    -1.9500    -1.0340 c3         1 3L3       0.172600
      9 CAL         -1.0090    -0.9470    -1.7610 c3         1 3L3       0.229800
     10 NBA         -0.3910     0.1200    -0.9150 nh         1 3L3      -0.673400
     11 CAN         -0.9320     1.4030    -0.7480 c2         1 3L3      -0.089000
     12 CAQ         -2.0630     1.8410    -1.3260 c2         1 3L3      -0.269600
     13 PBD         -2.7910     3.5460    -1.1590 p5         1 3L3       1.156100
     14 OAG         -4.2480     3.3790    -0.9030 o          1 3L3      -0.943500
     15 OAH         -2.0480     4.3270    -0.1300 o          1 3L3      -0.943500
     16 OAD         -2.6830     4.1430    -2.5190 o          1 3L3      -0.943500
     17 CAM          0.8790    -0.2510    -0.2460 c3         1 3L3       0.234800
     18 CAO          2.1190     0.4220    -0.8640 c3         1 3L3      -0.000400
     19 N9           3.3660     0.0860    -0.1540 na         1 3L3      -0.106500
     20 C4           4.2310    -0.9370    -0.4540 cc         1 3L3       0.127400
     21 N3           4.1360    -1.8640    -1.4740 nc         1 3L3      -0.646100
     22 C2           5.1340    -2.7160    -1.4880 cd         1 3L3       0.702800
     23 N2           5.0950    -3.6330    -2.4400 nv         1 3L3      -1.060200
     24 N1           6.1820    -2.7620    -0.6400 ns         1 3L3      -0.463400
     25 C6           6.3520    -1.8870     0.3920 c          1 3L3       0.526500
     26 O6           7.3150    -1.9520     1.1450 o          1 3L3      -0.573000
     27 C5           5.2480    -0.8840     0.4710 cd         1 3L3       0.070500
     28 N7           5.0300     0.1650     1.3590 nd         1 3L3      -0.615000
     29 C8           3.8930     0.7240     0.9580 cc         1 3L3       0.450700
     30 Br8          3.0750     2.2010     1.8060 br         1 3L3      -0.061200
     31 H3          -5.6090    -0.5300     0.0660 ha         1 3L3       0.164000
     32 H4          -3.8810    -3.1100     0.1210 h4         1 3L3       0.148000
     33 H5          -1.4520    -2.3430    -0.1380 h1         1 3L3      -0.018800
     34 H6          -2.1470    -2.7950    -1.7070 h1         1 3L3      -0.018800
     35 H7          -0.1970    -1.5490    -2.1900 h1         1 3L3       0.014700
     36 H8          -1.5280    -0.5090    -2.6230 h1         1 3L3       0.014700
     37 H9          -0.3520     2.0690    -0.1020 h4         1 3L3       0.178000
     38 H10         -2.6790     1.2250    -1.9700 ha         1 3L3       0.152000
     39 H13          0.8180     0.0170     0.8180 h1         1 3L3       0.038700
     40 H14          1.0260    -1.3390    -0.2890 h1         1 3L3       0.038700
     41 H15          2.2110     0.1050    -1.9100 h1         1 3L3       0.082200
     42 H16          1.9860     1.5100    -0.8600 h1         1 3L3       0.082200
     43 H17          4.2050    -3.6890    -2.9200 hn         1 3L3       0.494000
     44 H18          5.5440    -4.5210    -2.2500 hn         1 3L3       0.494000
     45 H19          6.9000    -3.4570    -0.7650 hn         1 3L3       0.297500
@<TRIPOS>BOND
     1     1     2 1   
     2     2     3 1   
     3     2     4 1   
     4     2     5 1   
     5     5     6 2   
     6     5    31 1   
     7     6     7 1   
     8     6    32 1   
     9     7     8 1   
    10     8     9 1   
    11     8    33 1   
    12     8    34 1   
    13     9    10 1   
    14     9    35 1   
    15     9    36 1   
    16    10    11 1   
    17    10    17 1   
    18    11    12 2   
    19    11    37 1   
    20    12    13 1   
    21    12    38 1   
    22    13    14 1   
    23    13    15 1   
    24    13    16 1   
    25    17    18 1   
    26    17    39 1   
    27    17    40 1   
    28    18    19 1   
    29    18    41 1   
    30    18    42 1   
    31    19    20 1   
    32    19    29 1   
    33    20    21 1   
    34    20    27 2   
    35    21    22 2   
    36    22    23 1   
    37    22    24 1   
    38    23    43 1   
    39    23    44 1   
    40    24    25 1   
    41    24    45 1   
    42    25    26 2   
    43    25    27 1   
    44    27    28 1   
    45    28    29 2   
    46    29    30 1   
@<TRIPOS>SUBSTRUCTURE
     1 3L3         1 TEMP              0 ****  ****    0 ROOT
