@<TRIPOS>MOLECULE
3L3
   45    46     1     0     0
SMALL
abcg2


@<TRIPOS>ATOM
      1 OAE         -5.6310    -4.3990     0.7430 o          1 3L3      -0.954500
      2 PBC         -6.3030    -3.0270     0.8830 p5         1 3L3       1.178100
      3 OAF         -7.5260    -2.8360    -0.0220 o          1 3L3      -0.954500
      4 OAC         -6.5580    -2.6050     2.3360 o          1 3L3      -0.954500
      5 CAP         -5.0680    -1.8140     0.2580 c2         1 3L3      -0.295600
      6 CAK         -3.8690    -2.1590    -0.2010 c2         1 3L3      -0.120900
      7 OAU         -2.9570    -1.2640    -0.6690 os         1 3L3      -0.342100
      8 CAJ         -1.7330    -1.8160    -1.1000 c3         1 3L3       0.172600
      9 CAL         -0.8520    -0.7200    -1.6620 c3         1 3L3       0.229800
     10 NBA         -0.4450     0.2660    -0.6890 nh         1 3L3      -0.673400
     11 CAN         -0.9840     1.5410    -0.6710 c2         1 3L3      -0.089000
     12 CAQ         -2.0680     2.0180    -1.2940 c2         1 3L3      -0.269600
     13 PBD         -2.6050     3.7680    -1.1690 p5         1 3L3       1.156100
     14 OAG         -4.0120     3.7230    -0.5540 o          1 3L3      -0.943500
     15 OAH         -1.5630     4.4580    -0.2750 o          1 3L3      -0.943500
     16 OAD         -2.6110     4.2830    -2.6170 o          1 3L3      -0.943500
     17 CAM          0.8250     0.0590    -0.0480 c3         1 3L3       0.234800
     18 CAO          2.0000     0.5040    -0.9270 c3         1 3L3      -0.000400
     19 N9           3.2750     0.2100    -0.3070 na         1 3L3      -0.106500
     20 C4           3.9860    -0.9390    -0.4760 cc         1 3L3       0.127400
     21 N3           3.6550    -1.9480    -1.2900 nc         1 3L3      -0.646100
     22 C2           4.5200    -2.9330    -1.2640 cd         1 3L3       0.702800
     23 N2           4.3430    -3.9990    -2.0540 nv         1 3L3      -1.060200
     24 N1           5.6380    -2.9210    -0.4790 ns         1 3L3      -0.463400
     25 C6           6.0270    -1.8950     0.3920 c          1 3L3       0.526500
     26 O6           7.0490    -1.9910     1.0500 o          1 3L3      -0.573000
     27 C5           5.0830    -0.8280     0.3550 cd         1 3L3       0.070500
     28 N7           5.0550     0.3600     1.0380 nd         1 3L3      -0.615000
     29 C8           3.9750     0.9340     0.6250 cc         1 3L3       0.450700
     30 BR8          3.3930     2.5970     1.2050 br         1 3L3      -0.061200
     31 H3          -5.3240    -0.7550     0.2620 ha         1 3L3       0.164000
     32 H4          -3.5630    -3.2040    -0.2270 h4         1 3L3       0.148000
     33 H5          -1.2170    -2.3170    -0.2700 h1         1 3L3      -0.018800
     34 H6          -1.8960    -2.5710    -1.8810 h1         1 3L3      -0.018800
     35 H7           0.0320    -1.2070    -2.0870 h1         1 3L3       0.014700
     36 H8          -1.3560    -0.2270    -2.4970 h1         1 3L3       0.014700
     37 H9          -0.4210     2.2250    -0.0400 h4         1 3L3       0.178000
     38 H10         -2.6740     1.3460    -1.8980 ha         1 3L3       0.152000
     39 H13          0.8490     0.6020     0.8990 h1         1 3L3       0.038700
     40 H14          0.9430    -0.9990     0.2010 h1         1 3L3       0.038700
     41 H15          1.9810    -0.0180    -1.8830 h1         1 3L3       0.082200
     42 H16          1.9420     1.5710    -1.1420 h1         1 3L3       0.082200
     43 H17          3.4610    -4.0880    -2.5300 hn         1 3L3       0.494000
     44 H18          4.8650    -4.8470    -1.9110 hn         1 3L3       0.494000
     45 H19          6.2580    -3.7190    -0.5170 hn         1 3L3       0.297500
@<TRIPOS>BOND
     1     1     2 1   
     2     2     3 1   
     3     2     4 1   
     4     2     5 1   
     5     5     6 2   
     6     5    31 1   
     7     6     7 1   
     8     6    32 1   
     9     7     8 1   
    10     8     9 1   
    11     8    33 1   
    12     8    34 1   
    13     9    10 1   
    14     9    35 1   
    15     9    36 1   
    16    10    11 1   
    17    10    17 1   
    18    11    12 2   
    19    11    37 1   
    20    12    13 1   
    21    12    38 1   
    22    13    14 1   
    23    13    15 1   
    24    13    16 1   
    25    17    18 1   
    26    17    39 1   
    27    17    40 1   
    28    18    19 1   
    29    18    41 1   
    30    18    42 1   
    31    19    20 1   
    32    19    29 1   
    33    20    21 1   
    34    20    27 2   
    35    21    22 2   
    36    22    23 1   
    37    22    24 1   
    38    23    43 1   
    39    23    44 1   
    40    24    25 1   
    41    24    45 1   
    42    25    26 2   
    43    25    27 1   
    44    27    28 1   
    45    28    29 2   
    46    29    30 1   
@<TRIPOS>SUBSTRUCTURE
     1 3L3         1 TEMP              0 ****  ****    0 ROOT
