@<TRIPOS>MOLECULE
3L4
   44    45     1     0     0
SMALL
No Charge or Current Charge


@<TRIPOS>ATOM
      1 OAG          1.6760    -4.7380     0.0160 o          1 3L4      -0.946500
      2 PBB          2.9230    -4.0990    -0.5030 p5         1 3L4       1.305500
      3 OAH          3.9600    -5.1520    -0.7160 o          1 3L4      -0.946500
      4 OAD          2.6410    -3.4150    -1.8010 o          1 3L4      -0.946500
      5 CAP          3.5810    -2.8530     0.7640 c3         1 3L4      -0.163400
      6 OAT          2.8750    -1.5870     0.8940 os         1 3L4      -0.417000
      7 CAJ          1.5060    -1.6790     1.3520 c3         1 3L4       0.174600
      8 CAK          0.9530    -0.2680     1.7230 c3         1 3L4       0.226800
      9 NAY          0.7040     0.6790     0.5940 nh         1 3L4      -0.667400
     10 CAM          1.6300     1.6310     0.1470 c2         1 3L4      -0.061000
     11 CAO          2.8480     1.8270     0.6810 c2         1 3L4      -0.303600
     12 PBA          4.0860     3.1010     0.1400 p5         1 3L4       1.170100
     13 OAE          3.6150     3.7890    -1.0950 o          1 3L4      -0.952500
     14 OAF          4.2190     4.0250     1.3010 o          1 3L4      -0.952500
     15 OAC          5.3990     2.4090     0.0200 o          1 3L4      -0.952500
     16 CAL         -0.6390     0.5870    -0.0320 c3         1 3L4       0.234800
     17 CAN         -1.5680     1.7650     0.3250 c3         1 3L4       0.000600
     18 N9          -2.8910     1.6700    -0.3140 na         1 3L4      -0.121500
     19 C4          -3.9430     0.8820     0.0840 cc         1 3L4       0.127400
     20 N3          -4.0020     0.0140     1.1560 nc         1 3L4      -0.631100
     21 C2          -5.1600    -0.5940     1.2620 cd         1 3L4       0.703800
     22 N2          -5.2780    -1.4460     2.2680 nv         1 3L4      -1.062200
     23 N1          -6.2350    -0.4520     0.4590 ns         1 3L4      -0.464400
     24 C6          -6.2620     0.3840    -0.6200 c          1 3L4       0.526500
     25 O6          -7.2540     0.4940    -1.3280 o          1 3L4      -0.592000
     26 C5          -4.9680     1.1120    -0.8030 cd         1 3L4       0.064500
     27 N7          -4.5690     2.0420    -1.7600 nd         1 3L4      -0.656000
     28 C8          -3.3150     2.3570    -1.4380 cc         1 3L4       0.404400
     29 H3           3.6080    -3.3630     1.7360 h1         1 3L4      -0.006300
     30 H4           4.6230    -2.6520     0.4830 h1         1 3L4      -0.006300
     31 H5           0.8630    -2.1250     0.5820 h1         1 3L4       0.006700
     32 H6           1.4520    -2.3110     2.2480 h1         1 3L4       0.006700
     33 H7          -0.0040    -0.4420     2.2320 h1         1 3L4       0.001700
     34 H8           1.5980     0.1940     2.4810 h1         1 3L4       0.001700
     35 H9           1.2920     2.2480    -0.6890 h4         1 3L4       0.169000
     36 H10          3.2340     1.2430     1.5070 ha         1 3L4       0.147000
     37 H13         -0.5290     0.5380    -1.1230 h1         1 3L4       0.045200
     38 H14         -1.1360    -0.3430     0.2770 h1         1 3L4       0.045200
     39 H15         -1.7050     1.7960     1.4130 h1         1 3L4       0.069700
     40 H16         -1.0940     2.7070     0.0200 h1         1 3L4       0.069700
     41 H17         -4.4000    -1.6740     2.7160 hn         1 3L4       0.497000
     42 H18         -5.9200    -2.2200     2.1490 hn         1 3L4       0.497000
     43 H19         -7.0800    -0.9620     0.6530 hn         1 3L4       0.294500
     44 H20         -2.6740     3.0560    -1.9620 h5         1 3L4       0.064100
@<TRIPOS>BOND
     1     1     2 1   
     2     2     3 1   
     3     2     4 1   
     4     2     5 1   
     5     5     6 1   
     6     5    29 1   
     7     5    30 1   
     8     6     7 1   
     9     7     8 1   
    10     7    31 1   
    11     7    32 1   
    12     8     9 1   
    13     8    33 1   
    14     8    34 1   
    15     9    10 1   
    16     9    16 1   
    17    10    11 2   
    18    10    35 1   
    19    11    12 1   
    20    11    36 1   
    21    12    13 1   
    22    12    14 1   
    23    12    15 1   
    24    16    17 1   
    25    16    37 1   
    26    16    38 1   
    27    17    18 1   
    28    17    39 1   
    29    17    40 1   
    30    18    19 1   
    31    18    28 1   
    32    19    20 1   
    33    19    26 2   
    34    20    21 2   
    35    21    22 1   
    36    21    23 1   
    37    22    41 1   
    38    22    42 1   
    39    23    24 1   
    40    23    43 1   
    41    24    25 2   
    42    24    26 1   
    43    26    27 1   
    44    27    28 2   
    45    28    44 1   
@<TRIPOS>SUBSTRUCTURE
     1 3L4         1 TEMP              0 ****  ****    0 ROOT
