@<TRIPOS>MOLECULE
3L4
   44    45     1     0     0
SMALL
bcc


@<TRIPOS>ATOM
      1 OAG          1.2830    -4.6340     0.1900 o          1 3L4      -0.946500
      2 PBB          2.7080    -4.2430    -0.2270 p5         1 3L4       1.147700
      3 OAH          3.7560    -5.3210     0.0950 o          1 3L4      -0.946500
      4 OAD          2.8060    -3.6820    -1.6500 o          1 3L4      -0.946500
      5 CAP          3.2330    -2.8540     0.9060 c3         1 3L4      -0.028800
      6 OAT          2.5610    -1.6090     0.7780 os         1 3L4      -0.370600
      7 CAJ          1.2270    -1.6200     1.1960 c3         1 3L4       0.151400
      8 CAK          0.7570    -0.2010     1.4530 c3         1 3L4       0.226800
      9 NAY          0.7170     0.6350     0.2740 nh         1 3L4      -0.667400
     10 CAM          1.6830     1.5910     0.0250 c2         1 3L4      -0.011000
     11 CAO          2.8590     1.7970     0.6330 c2         1 3L4      -0.253600
     12 PBA          4.0190     3.1340     0.1600 p5         1 3L4       1.170100
     13 OAE          3.3440     3.8890    -0.9950 o          1 3L4      -0.952500
     14 OAF          4.1920     3.9810     1.4320 o          1 3L4      -0.952500
     15 OAC          5.3180     2.4190    -0.2480 o          1 3L4      -0.952500
     16 CAL         -0.5590     0.7700    -0.3760 c3         1 3L4       0.234800
     17 CAN         -1.4640     1.7920     0.3220 c3         1 3L4      -0.028700
     18 N9          -2.8160     1.7590    -0.1910 na         1 3L4      -0.142900
     19 C4          -3.7740     0.8610     0.1500 cc         1 3L4       0.112800
     20 N3          -3.6470    -0.1220     1.0530 nc         1 3L4      -0.631100
     21 C2          -4.7370    -0.8330     1.1940 cd         1 3L4       0.703800
     22 N2          -4.7760    -1.8300     2.0890 nv         1 3L4      -0.951800
     23 N1          -5.8810    -0.5910     0.4860 ns         1 3L4      -0.531400
     24 C6          -6.0650     0.4180    -0.4690 c          1 3L4       0.669000
     25 O6          -7.1360     0.5430    -1.0390 o          1 3L4      -0.667500
     26 C5          -4.8760     1.1880    -0.6200 cd         1 3L4       0.129800
     27 N7          -4.6000     2.2620    -1.4260 nd         1 3L4      -0.656000
     28 C8          -3.3690     2.5690    -1.1470 cc         1 3L4       0.404400
     29 H3           3.1770    -3.1960     1.9540 h1         1 3L4      -0.006300
     30 H4           4.2890    -2.6290     0.7180 h1         1 3L4      -0.006300
     31 H5           0.5720    -2.1030     0.4620 h1         1 3L4       0.006700
     32 H6           1.1110    -2.1890     2.1320 h1         1 3L4       0.006700
     33 H7          -0.2480    -0.2660     1.8830 h1         1 3L4       0.001700
     34 H8           1.3810     0.2690     2.2180 h1         1 3L4       0.001700
     35 H9           1.4200     2.2470    -0.8010 h4         1 3L4       0.119000
     36 H10          3.1620     1.1300     1.4380 ha         1 3L4       0.097000
     37 H13         -0.4150     1.0650    -1.4180 h1         1 3L4       0.045200
     38 H14         -1.0570    -0.2030    -0.3960 h1         1 3L4       0.045200
     39 H15         -1.5040     1.5960     1.3940 h1         1 3L4       0.069700
     40 H16         -1.0760     2.8020     0.1880 h1         1 3L4       0.069700
     41 H17         -3.9110    -2.1040     2.5230 hn         1 3L4       0.441800
     42 H18         -5.5140    -2.5110     2.0820 hn         1 3L4       0.441800
     43 H19         -6.6860    -1.1780     0.6630 hn         1 3L4       0.294500
     44 H20         -2.8030     3.3760    -1.5880 h5         1 3L4       0.064100
@<TRIPOS>BOND
     1     1     2 1   
     2     2     3 1   
     3     2     4 1   
     4     2     5 1   
     5     5     6 1   
     6     5    29 1   
     7     5    30 1   
     8     6     7 1   
     9     7     8 1   
    10     7    31 1   
    11     7    32 1   
    12     8     9 1   
    13     8    33 1   
    14     8    34 1   
    15     9    10 1   
    16     9    16 1   
    17    10    11 2   
    18    10    35 1   
    19    11    12 1   
    20    11    36 1   
    21    12    13 1   
    22    12    14 1   
    23    12    15 1   
    24    16    17 1   
    25    16    37 1   
    26    16    38 1   
    27    17    18 1   
    28    17    39 1   
    29    17    40 1   
    30    18    19 1   
    31    18    28 1   
    32    19    20 1   
    33    19    26 2   
    34    20    21 2   
    35    21    22 1   
    36    21    23 1   
    37    22    41 1   
    38    22    42 1   
    39    23    24 1   
    40    23    43 1   
    41    24    25 2   
    42    24    26 1   
    43    26    27 1   
    44    27    28 2   
    45    28    44 1   
@<TRIPOS>SUBSTRUCTURE
     1 3L4         1 TEMP              0 ****  ****    0 ROOT
