@<TRIPOS>MOLECULE
3L9
  150   158     1     0     0
SMALL
No Charge or Current Charge


@<TRIPOS>ATOM
      1 C1          -3.4000     4.8770     5.2490 ca         1 3L9      -0.243000
      2 C2          -3.7040     3.9910     4.2120 ca         1 3L9       0.291100
      3 C3          -2.7060     3.1650     3.6640 ca         1 3L9      -0.377600
      4 C4          -1.4050     3.2490     4.1680 ca         1 3L9       0.247100
      5 C2F         -1.9210     4.7230     0.5370 ca         1 3L9      -0.104000
      6 C3F         -0.9010     5.2320     1.3540 ca         1 3L9       0.110100
      7 O3F         -1.1810     6.1730     2.3010 oh         1 3L9      -0.529100
      8 C4F          0.4240     4.7810     1.2000 ca         1 3L9       0.057100
      9 O4F          1.4150     5.2790     2.0040 oh         1 3L9      -0.552100
     10 C5F          0.7250     3.8250     0.2180 ca         1 3L9      -0.170000
     11 C6F         -0.2970     3.3210    -0.6080 ca         1 3L9      -0.078000
     12 C1F         -1.6280     3.7650    -0.4550 ca         1 3L9      -0.067800
     13 C7F         -2.7270     3.2360    -1.3110 ce         1 3L9      -0.058200
     14 C8F         -2.6410     2.5850    -2.5090 cf         1 3L9      -0.283200
     15 C9F         -3.8200     2.0940    -3.2620 c          1 3L9       0.608300
     16 O9F         -4.9730     2.2340    -2.8790 o          1 3L9      -0.479000
     17 C6D         -4.4200     0.6150    -5.0840 c3         1 3L9       0.170600
     18 C5D         -4.3420    -0.8390    -4.5070 c6         1 3L9       0.127300
     19 O5D         -4.3470    -0.7480    -3.0660 os         1 3L9      -0.480000
     20 C4D         -5.5320    -1.7490    -4.9550 c6         1 3L9       0.107300
     21 O4D         -5.5700    -1.9240    -6.3890 oh         1 3L9      -0.722000
     22 C3D         -5.4070    -3.1400    -4.2580 c6         1 3L9       0.164300
     23 O3D         -6.5500    -3.9670    -4.5770 oh         1 3L9      -0.739000
     24 C2D         -5.2470    -2.9930    -2.7200 c6         1 3L9       0.165300
     25 O2D         -5.0250    -4.2990    -2.1160 os         1 3L9      -0.442000
     26 C1E         -5.8230    -4.5820    -0.9560 c6         1 3L9       0.383300
     27 O5E         -5.0890    -5.4610    -0.0770 os         1 3L9      -0.448000
     28 C5E         -5.7700    -5.7360     1.1790 c6         1 3L9       0.147300
     29 C6E         -4.8670    -6.6670     2.0570 c3         1 3L9       0.168600
     30 O6E         -3.5430    -6.1470     2.3220 oh         1 3L9      -0.733000
     31 C4E         -7.1610    -6.3980     0.9010 c6         1 3L9       0.143300
     32 O4E         -7.9110    -6.6120     2.1110 oh         1 3L9      -0.724000
     33 C3E         -7.9900    -5.5160    -0.0790 c6         1 3L9       0.139300
     34 O3E         -9.2390    -6.1460    -0.4060 oh         1 3L9      -0.669000
     35 C2E         -7.1770    -5.2560    -1.3730 c6         1 3L9       0.089300
     36 O2E         -7.9600    -4.4830    -2.3210 oh         1 3L9      -0.744000
     37 C1D         -4.1140    -1.9870    -2.3790 c6         1 3L9       0.376300
     38 O2C         -4.1230    -1.6740    -0.9790 os         1 3L9      -0.424000
     39 C2C         -2.8610    -1.1920    -0.4450 c6         1 3L9       0.146300
     40 C3C         -1.9390    -2.3670     0.0140 c6         1 3L9       0.151300
     41 O3C         -1.6570    -3.3250    -1.0200 oh         1 3L9      -0.720000
     42 C4C         -2.6230    -3.0990     1.1990 c6         1 3L9       0.107300
     43 O4C         -1.8310    -4.2340     1.6000 oh         1 3L9      -0.738000
     44 C5C         -2.8480    -2.0770     2.3570 c6         1 3L9       0.144300
     45 C6C         -3.6030    -2.6860     3.5640 c3         1 3L9      -0.085100
     46 O5C         -3.6540    -0.9680     1.8890 os         1 3L9      -0.454000
     47 C1C         -3.1100    -0.2360     0.7570 c6         1 3L9       0.393300
     48 O27         -1.8710     0.3930     1.1500 os         1 3L9      -0.379100
     49 C10         -1.8050     1.4200     2.0760 cc         1 3L9      -0.029100
     50 C9          -2.9810     2.2060     2.5550 c          1 3L9       0.599900
     51 O13         -4.1120     2.1320     2.0850 o          1 3L9      -0.587100
     52 O30         -4.9770     3.9400     3.7490 oh         1 3L9      -0.536100
     53 C6          -2.0980     4.9490     5.7460 ca         1 3L9       0.243100
     54 O29         -1.8080     5.8110     6.7550 oh         1 3L9      -0.519100
     55 C5          -1.0990     4.1350     5.2080 ca         1 3L9      -0.310000
     56 O12         -0.3970     2.4680     3.6680 os         1 3L9      -0.204200
     57 C11         -0.5410     1.5710     2.6390 cd         1 3L9       0.151900
     58 C14          0.7690     0.9840     2.2140 ca         1 3L9       0.019200
     59 C15          0.9950     0.4440     0.9220 ca         1 3L9      -0.162500
     60 C16          2.2430    -0.0840     0.5670 ca         1 3L9       0.187100
     61 O25          2.4470    -0.5820    -0.6830 oh         1 3L9      -0.535100
     62 C19          1.8630     0.9960     3.1170 ca         1 3L9      -0.162500
     63 C18          3.1130     0.4690     2.7610 ca         1 3L9       0.187100
     64 O23          4.1380     0.5020     3.6640 oh         1 3L9      -0.535100
     65 C17          3.3010    -0.0820     1.4840 ca         1 3L9      -0.095900
     66 O24          4.5120    -0.6260     1.1280 os         1 3L9      -0.336100
     67 C1A          5.4940     0.2500     0.5590 c6         1 3L9       0.375300
     68 C2A          6.8470     0.0670     1.3060 c6         1 3L9       0.143300
     69 O2A          6.7370     0.3680     2.7180 oh         1 3L9      -0.733000
     70 C3A          7.9000     0.9850     0.6300 c6         1 3L9       0.144300
     71 O3A          9.1800     0.8690     1.2770 oh         1 3L9      -0.717000
     72 O5A          5.6440    -0.0730    -0.8380 os         1 3L9      -0.472000
     73 C5A          6.5920     0.7740    -1.5330 c6         1 3L9       0.140600
     74 C4A          8.0070     0.6500    -0.8860 c6         1 3L9       0.103300
     75 O4A          8.9950     1.5180    -1.5040 os         1 3L9      -0.491000
     76 C1B          9.3750     1.1850    -2.8580 c6         1 3L9       0.355300
     77 O5B         10.0930    -0.0700    -2.8590 os         1 3L9      -0.460000
     78 C5B         11.3340    -0.0650    -2.1130 c6         1 3L9       0.138300
     79 C6B         11.8990    -1.5050    -2.1950 c3         1 3L9      -0.091100
     80 C4B         12.3120     1.0090    -2.6840 c6         1 3L9       0.149300
     81 O4B         13.5340     1.0820    -1.9170 oh         1 3L9      -0.707000
     82 C3B         11.6060     2.4020    -2.7110 c6         1 3L9       0.188300
     83 O3B         12.4600     3.3810    -3.3270 oh         1 3L9      -0.626000
     84 C2B         10.2590     2.3210    -3.4890 c6         1 3L9       0.113300
     85 O2B         10.5370     2.1000    -4.8980 oh         1 3L9      -0.687000
     86 H1          -4.1770     5.5100     5.6660 ha         1 3L9       0.153000
     87 H3          -0.3260     6.3630     2.7480 ho         1 3L9       0.480000
     88 H4           2.2660     4.8580     1.7530 ho         1 3L9       0.475000
     89 H5           1.7430     3.4640     0.0890 ha         1 3L9       0.116000
     90 H6          -0.0490     2.5750    -1.3590 ha         1 3L9       0.122000
     91 H7          -3.7250     3.4170    -0.9030 ha         1 3L9       0.201000
     92 H9          -1.6720     2.3950    -2.9630 ha         1 3L9       0.196000
     93 H12         -4.1950     0.5580    -6.1570 h1         1 3L9       0.069700
     94 H13         -3.3890    -1.2840    -4.8310 h1         1 3L9       0.062700
     95 H14         -6.4660    -1.2800    -4.6070 h1         1 3L9       0.064700
     96 H15         -6.1700    -1.2340    -6.7630 ho         1 3L9       0.515000
     97 H16         -4.4900    -3.6190    -4.6370 h1         1 3L9       0.063700
     98 H17         -6.6330    -3.9070    -5.5620 ho         1 3L9       0.531000
     99 H18         -6.1800    -2.5600    -2.3330 h1         1 3L9       0.080700
    100 H19         -6.0260    -3.6440    -0.4170 h2         1 3L9       0.047700
    101 H20         -5.9150    -4.7870     1.7150 h1         1 3L9       0.050700
    102 H21         -5.3930    -6.8430     3.0060 h1         1 3L9       0.068200
    103 H22         -4.7950    -7.6380     1.5490 h1         1 3L9       0.068200
    104 H23         -3.1020    -6.8200     2.8970 ho         1 3L9       0.509000
    105 H24         -6.9780    -7.3660     0.4080 h1         1 3L9       0.056700
    106 H25         -8.8440    -6.7430     1.8080 ho         1 3L9       0.528000
    107 H26         -8.1800    -4.5450     0.4040 h1         1 3L9       0.052700
    108 H27         -9.4990    -5.7310    -1.2630 ho         1 3L9       0.469000
    109 H28         -6.9270    -6.2310    -1.8200 h1         1 3L9       0.062700
    110 H29         -7.3950    -4.3650    -3.1450 ho         1 3L9       0.547000
    111 H30         -3.1480    -2.4110    -2.6860 h2         1 3L9       0.064700
    112 H31         -2.3430    -0.6100    -1.2210 h1         1 3L9       0.083700
    113 H32         -0.9920    -1.9390     0.3780 h1         1 3L9       0.060700
    114 H33         -1.4710    -4.1530    -0.5140 ho         1 3L9       0.527000
    115 H34         -3.6120    -3.4440     0.8630 h1         1 3L9       0.072700
    116 H35         -2.4900    -4.9420     1.8740 ho         1 3L9       0.538000
    117 H36         -1.8780    -1.6930     2.7090 h1         1 3L9       0.052700
    118 H37         -3.0230    -3.4910     4.0290 hc         1 3L9       0.043367
    119 H38         -3.7880    -1.9280     4.3340 hc         1 3L9       0.043367
    120 H39         -4.5710    -3.1020     3.2590 hc         1 3L9       0.043367
    121 H40         -3.8280     0.5260     0.4190 h2         1 3L9       0.123700
    122 H42         -4.9620     3.2570     3.0310 ho         1 3L9       0.524000
    123 H43         -0.8580     5.7110     6.9720 ho         1 3L9       0.472000
    124 H44         -0.0820     4.1820     5.5860 ha         1 3L9       0.136000
    125 H46          0.2280     0.4600     0.1580 ha         1 3L9       0.147500
    126 H47          3.4000    -0.8210    -0.7290 ho         1 3L9       0.499000
    127 H48          1.7500     1.4050     4.1170 ha         1 3L9       0.147500
    128 H49          4.9850     0.2900     3.1900 ho         1 3L9       0.499000
    129 H50          5.1620     1.2940     0.6630 h2         1 3L9       0.049700
    130 H51          7.1650    -0.9780     1.1700 h1         1 3L9       0.078700
    131 H52          7.6700     0.5430     3.0020 ho         1 3L9       0.538000
    132 H53          7.5460     2.0250     0.7150 h1         1 3L9       0.051700
    133 H54          9.8170     1.3090     0.6650 ho         1 3L9       0.524000
    134 H55          6.6240     0.4620    -2.5850 h1         1 3L9       0.060200
    135 H56          6.2450     1.8180    -1.4960 h1         1 3L9       0.060200
    136 H57          8.3420    -0.3930    -0.9860 h1         1 3L9       0.083700
    137 H58          8.4700     1.0810    -3.4740 h2         1 3L9       0.067700
    138 H59         11.1180     0.1590    -1.0580 h1         1 3L9       0.051700
    139 H60         12.1420    -1.7790    -3.2280 hc         1 3L9       0.048367
    140 H61         12.8120    -1.6070    -1.5970 hc         1 3L9       0.048367
    141 H62         11.1730    -2.2330    -1.8130 hc         1 3L9       0.048367
    142 H63         12.5450     0.7260    -3.7230 h1         1 3L9       0.071700
    143 H64         13.9500     1.9410    -2.1700 ho         1 3L9       0.508000
    144 H65         11.3890     2.6990    -1.6740 h1         1 3L9       0.051700
    145 H66         12.2230     3.3380    -4.2820 ho         1 3L9       0.442000
    146 H67          9.7260     3.2740    -3.3600 h1         1 3L9       0.046700
    147 H68          9.6740     2.0850    -5.3750 ho         1 3L9       0.503000
    148 H11         -5.4410     1.0070    -4.9870 h1         1 3L9       0.069700
    149 O6D         -3.4480     1.4660    -4.4250 os         1 3L9      -0.444100
    150 H2          -2.9390     5.0820     0.6710 ha         1 3L9       0.139000
@<TRIPOS>BOND
     1     1     2 ar  
     2     1    53 ar  
     3     1    86 1   
     4     2     3 ar  
     5     2    52 1   
     6     3     4 ar  
     7     3    50 1   
     8     4    55 ar  
     9     4    56 1   
    10     5     6 ar  
    11     5    12 ar  
    12     5   150 1   
    13     6     7 1   
    14     6     8 ar  
    15     7    87 1   
    16     8     9 1   
    17     8    10 ar  
    18     9    88 1   
    19    10    11 ar  
    20    10    89 1   
    21    11    12 ar  
    22    11    90 1   
    23    12    13 1   
    24    13    14 2   
    25    13    91 1   
    26    14    15 1   
    27    14    92 1   
    28    15    16 2   
    29    15   149 1   
    30    17    18 1   
    31    17    93 1   
    32    17   148 1   
    33    17   149 1   
    34    18    19 1   
    35    18    20 1   
    36    18    94 1   
    37    19    37 1   
    38    20    21 1   
    39    20    22 1   
    40    20    95 1   
    41    21    96 1   
    42    22    23 1   
    43    22    24 1   
    44    22    97 1   
    45    23    98 1   
    46    24    25 1   
    47    24    37 1   
    48    24    99 1   
    49    25    26 1   
    50    26    27 1   
    51    26    35 1   
    52    26   100 1   
    53    27    28 1   
    54    28    29 1   
    55    28    31 1   
    56    28   101 1   
    57    29    30 1   
    58    29   102 1   
    59    29   103 1   
    60    30   104 1   
    61    31    32 1   
    62    31    33 1   
    63    31   105 1   
    64    32   106 1   
    65    33    34 1   
    66    33    35 1   
    67    33   107 1   
    68    34   108 1   
    69    35    36 1   
    70    35   109 1   
    71    36   110 1   
    72    37    38 1   
    73    37   111 1   
    74    38    39 1   
    75    39    40 1   
    76    39    47 1   
    77    39   112 1   
    78    40    41 1   
    79    40    42 1   
    80    40   113 1   
    81    41   114 1   
    82    42    43 1   
    83    42    44 1   
    84    42   115 1   
    85    43   116 1   
    86    44    45 1   
    87    44    46 1   
    88    44   117 1   
    89    45   118 1   
    90    45   119 1   
    91    45   120 1   
    92    46    47 1   
    93    47    48 1   
    94    47   121 1   
    95    48    49 1   
    96    49    50 1   
    97    49    57 2   
    98    50    51 2   
    99    52   122 1   
   100    53    54 1   
   101    53    55 ar  
   102    54   123 1   
   103    55   124 1   
   104    56    57 1   
   105    57    58 1   
   106    58    59 ar  
   107    58    62 ar  
   108    59    60 ar  
   109    59   125 1   
   110    60    61 1   
   111    60    65 ar  
   112    61   126 1   
   113    62    63 ar  
   114    62   127 1   
   115    63    64 1   
   116    63    65 ar  
   117    64   128 1   
   118    65    66 1   
   119    66    67 1   
   120    67    68 1   
   121    67    72 1   
   122    67   129 1   
   123    68    69 1   
   124    68    70 1   
   125    68   130 1   
   126    69   131 1   
   127    70    71 1   
   128    70    74 1   
   129    70   132 1   
   130    71   133 1   
   131    72    73 1   
   132    73    74 1   
   133    73   134 1   
   134    73   135 1   
   135    74    75 1   
   136    74   136 1   
   137    75    76 1   
   138    76    77 1   
   139    76    84 1   
   140    76   137 1   
   141    77    78 1   
   142    78    79 1   
   143    78    80 1   
   144    78   138 1   
   145    79   139 1   
   146    79   140 1   
   147    79   141 1   
   148    80    81 1   
   149    80    82 1   
   150    80   142 1   
   151    81   143 1   
   152    82    83 1   
   153    82    84 1   
   154    82   144 1   
   155    83   145 1   
   156    84    85 1   
   157    84   146 1   
   158    85   147 1   
@<TRIPOS>SUBSTRUCTURE
     1 3L9         1 TEMP              0 ****  ****    0 ROOT
