@<TRIPOS>MOLECULE
3L9
  150   158     1     0     0
SMALL
abcg2


@<TRIPOS>ATOM
      1 C1          -3.5330     4.9280     5.2560 ca         1 3L9      -0.243000
      2 C2          -3.8550     4.1610     4.1540 ca         1 3L9       0.291100
      3 C3          -2.8490     3.4250     3.4800 ca         1 3L9      -0.377600
      4 C4          -1.5390     3.5370     3.9390 ca         1 3L9       0.247100
      5 C2F         -2.7380     5.1940     0.5870 ca         1 3L9      -0.104000
      6 C3F         -1.7340     5.7130     1.3810 ca         1 3L9       0.110100
      7 O3F         -2.0660     6.4750     2.4430 oh         1 3L9      -0.529100
      8 C4F         -0.3990     5.4210     1.0730 ca         1 3L9       0.057100
      9 O4F          0.5300     5.9240     1.9100 oh         1 3L9      -0.552100
     10 C5F         -0.1040     4.6430    -0.0390 ca         1 3L9      -0.170000
     11 C6F         -1.1180     4.1370    -0.8330 ca         1 3L9      -0.078000
     12 C1F         -2.4530     4.3950    -0.5250 ca         1 3L9      -0.067800
     13 C7F         -3.5640     3.8120    -1.2580 ce         1 3L9      -0.058200
     14 C8F         -3.5010     3.1010    -2.3920 cf         1 3L9      -0.283200
     15 C9F         -4.7160     2.4980    -2.9480 c          1 3L9       0.608300
     16 O9F         -5.8190     2.5710    -2.4590 o          1 3L9      -0.479000
     17 C6D         -5.4120     0.9230    -4.5840 c3         1 3L9       0.170600
     18 C5D         -4.9860    -0.4720    -4.1600 c6         1 3L9       0.127300
     19 O5D         -4.7960    -0.4490    -2.7660 os         1 3L9      -0.480000
     20 C4D         -6.0300    -1.5410    -4.4890 c6         1 3L9       0.107300
     21 O4D         -6.1950    -1.6970    -5.8790 oh         1 3L9      -0.722000
     22 C3D         -5.5720    -2.8860    -3.9230 c6         1 3L9       0.164300
     23 O3D         -6.5840    -3.8570    -4.0590 oh         1 3L9      -0.739000
     24 C2D         -5.1990    -2.7780    -2.4440 c6         1 3L9       0.165300
     25 O2D         -4.6130    -3.9920    -2.0400 os         1 3L9      -0.442000
     26 C1E         -5.0830    -4.6160    -0.8880 c6         1 3L9       0.383300
     27 O5E         -3.9440    -5.1530    -0.2780 os         1 3L9      -0.448000
     28 C5E         -4.1890    -5.8780     0.9110 c6         1 3L9       0.147300
     29 C6E         -2.8510    -6.3590     1.4540 c3         1 3L9       0.168600
     30 O6E         -2.0920    -5.3520     2.0950 oh         1 3L9      -0.733000
     31 C4E         -5.1200    -7.0610     0.6320 c6         1 3L9       0.143300
     32 O4E         -5.3890    -7.6970     1.8570 oh         1 3L9      -0.724000
     33 C3E         -6.3960    -6.5540    -0.0210 c6         1 3L9       0.139300
     34 O3E         -7.1940    -7.6740    -0.3250 oh         1 3L9      -0.669000
     35 C2E         -6.0640    -5.7350    -1.2560 c6         1 3L9       0.089300
     36 O2E         -7.2690    -5.2230    -1.7620 oh         1 3L9      -0.744000
     37 C1D         -4.2040    -1.6310    -2.2860 c6         1 3L9       0.376300
     38 O2C         -3.9190    -1.4490    -0.9550 os         1 3L9      -0.424000
     39 C2C         -2.7820    -0.6450    -0.6830 c6         1 3L9       0.146300
     40 C3C         -1.5790    -1.5130    -0.3500 c6         1 3L9       0.151300
     41 O3C         -1.2840    -2.3410    -1.4440 oh         1 3L9      -0.720000
     42 C4C         -1.8780    -2.3050     0.9120 c6         1 3L9       0.107300
     43 O4C         -0.7570    -3.0990     1.2170 oh         1 3L9      -0.738000
     44 C5C         -2.1930    -1.3350     2.0530 c6         1 3L9       0.144300
     45 C6C         -2.5980    -2.0370     3.3310 c3         1 3L9      -0.085100
     46 O5C         -3.2840    -0.4830     1.6900 os         1 3L9      -0.454000
     47 C1C         -3.1650     0.2260     0.5130 c6         1 3L9       0.393300
     48 O27         -2.1590     1.2310     0.5830 os         1 3L9      -0.379100
     49 C10         -2.0130     1.9620     1.7060 cc         1 3L9      -0.029100
     50 C9          -3.1460     2.6400     2.3090 c          1 3L9       0.599900
     51 O13         -4.2950     2.5500     1.8520 o          1 3L9      -0.587100
     52 O30         -5.1150     4.1160     3.7330 oh         1 3L9      -0.536100
     53 C6          -2.2050     4.9990     5.6880 ca         1 3L9       0.243100
     54 O29         -1.9620     5.7600     6.7600 oh         1 3L9      -0.519100
     55 C5          -1.1900     4.3120     5.0310 ca         1 3L9      -0.310000
     56 O12         -0.5490     2.8850     3.3100 os         1 3L9      -0.204200
     57 C11         -0.7700     2.1070     2.2360 cd         1 3L9       0.151900
     58 C14          0.4640     1.4460     1.7860 ca         1 3L9       0.019200
     59 C15          0.7270     1.2370     0.4360 ca         1 3L9      -0.162500
     60 C16          1.8950     0.5900     0.0520 ca         1 3L9       0.187100
     61 O25          2.1010     0.3990    -1.2610 oh         1 3L9      -0.535100
     62 C19          1.3790     1.0330     2.7550 ca         1 3L9      -0.162500
     63 C18          2.5480     0.3850     2.3760 ca         1 3L9       0.187100
     64 O23          3.3930    -0.0150     3.3350 oh         1 3L9      -0.535100
     65 C17          2.7940     0.1500     1.0220 ca         1 3L9      -0.095900
     66 O24          3.9080    -0.5610     0.6600 os         1 3L9      -0.336100
     67 C1A          5.0640     0.1620     0.3460 c6         1 3L9       0.375300
     68 C2A          6.2440    -0.5090     1.0350 c6         1 3L9       0.143300
     69 O2A          6.0360    -0.3570     2.4210 oh         1 3L9      -0.733000
     70 C3A          7.5470     0.1370     0.5780 c6         1 3L9       0.144300
     71 O3A          8.6030    -0.5750     1.1690 oh         1 3L9      -0.717000
     72 O5A          5.1980     0.1110    -1.0430 os         1 3L9      -0.472000
     73 C5A          6.3510     0.7870    -1.5070 c6         1 3L9       0.140600
     74 C4A          7.6050     0.1180    -0.9460 c6         1 3L9       0.103300
     75 O4A          8.7660     0.8170    -1.3400 os         1 3L9      -0.491000
     76 C1B          9.2640     0.5050    -2.6130 c6         1 3L9       0.355300
     77 O5B          9.7620    -0.7920    -2.6940 os         1 3L9      -0.460000
     78 C5B         10.8980    -1.0740    -1.8840 c6         1 3L9       0.138300
     79 C6B         11.2630    -2.5230    -2.1300 c3         1 3L9      -0.091100
     80 C4B         12.0520    -0.1140    -2.2080 c6         1 3L9       0.149300
     81 O4B         13.1190    -0.3090    -1.3090 oh         1 3L9      -0.707000
     82 C3B         11.5720     1.3230    -2.0730 c6         1 3L9       0.188300
     83 O3B         12.6250     2.1830    -2.4220 oh         1 3L9      -0.626000
     84 C2B         10.3360     1.5450    -2.9460 c6         1 3L9       0.113300
     85 O2B         10.7200     1.4250    -4.2920 oh         1 3L9      -0.687000
     86 H1          -4.3030     5.4820     5.7780 ha         1 3L9       0.153000
     87 H3          -1.2960     6.6360     3.0020 ho         1 3L9       0.480000
     88 H4           1.4150     5.6420     1.6560 ho         1 3L9       0.475000
     89 H5           0.9290     4.4160    -0.2750 ha         1 3L9       0.116000
     90 H6          -0.8570     3.5170    -1.6800 ha         1 3L9       0.122000
     91 H7          -4.5410     3.9620    -0.8110 ha         1 3L9       0.201000
     92 H9          -2.5650     2.9170    -2.9060 ha         1 3L9       0.196000
     93 H12         -5.4090     1.0020    -5.6710 h1         1 3L9       0.069700
     94 H13         -4.0420    -0.7280    -4.6670 h1         1 3L9       0.062700
     95 H14         -6.9760    -1.2640    -4.0030 h1         1 3L9       0.064700
     96 H15         -6.9260    -1.1470    -6.1740 ho         1 3L9       0.515000
     97 H16         -4.6710    -3.1960    -4.4730 h1         1 3L9       0.063700
     98 H17         -6.6420    -4.1320    -4.9790 ho         1 3L9       0.531000
     99 H18         -6.0950    -2.5400    -1.8540 h1         1 3L9       0.080700
    100 H19         -5.5810    -3.8930    -0.2190 h2         1 3L9       0.047700
    101 H20         -4.6780    -5.2320     1.6590 h1         1 3L9       0.050700
    102 H21         -3.0190    -7.1910     2.1420 h1         1 3L9       0.068200
    103 H22         -2.2480    -6.7380     0.6270 h1         1 3L9       0.068200
    104 H23         -2.4840    -5.1700     2.9560 ho         1 3L9       0.509000
    105 H24         -4.6120    -7.7440    -0.0680 h1         1 3L9       0.056700
    106 H25         -5.9710    -8.4440     1.6860 ho         1 3L9       0.528000
    107 H26         -6.9060    -5.8980     0.7040 h1         1 3L9       0.052700
    108 H27         -8.0350    -7.3620    -0.6740 ho         1 3L9       0.469000
    109 H28         -5.5610    -6.3870    -1.9880 h1         1 3L9       0.062700
    110 H29         -7.1020    -4.8450    -2.6430 ho         1 3L9       0.547000
    111 H30         -3.2960    -1.8510    -2.8700 h2         1 3L9       0.064700
    112 H31         -2.5630     0.0170    -1.5290 h1         1 3L9       0.083700
    113 H32         -0.7330    -0.8430    -0.1410 h1         1 3L9       0.060700
    114 H33         -0.7150    -3.0470    -1.1190 ho         1 3L9       0.527000
    115 H34         -2.7540    -2.9400     0.7330 h1         1 3L9       0.072700
    116 H35         -1.0950    -3.9590     1.5190 ho         1 3L9       0.538000
    117 H36         -1.2970    -0.7300     2.2520 h1         1 3L9       0.052700
    118 H37         -1.7650    -2.6190     3.7230 hc         1 3L9       0.043367
    119 H38         -2.8770    -1.3140     4.0970 hc         1 3L9       0.043367
    120 H39         -3.4430    -2.7090     3.1640 hc         1 3L9       0.043367
    121 H40         -4.1360     0.6850     0.3270 h2         1 3L9       0.123700
    122 H42         -5.1400     3.5280     2.9390 ho         1 3L9       0.524000
    123 H43         -1.0260     5.7420     6.9890 ho         1 3L9       0.472000
    124 H44         -0.1590     4.3710     5.3570 ha         1 3L9       0.136000
    125 H46          0.0480     1.5750    -0.3300 ha         1 3L9       0.147500
    126 H47          2.9590    -0.0130    -1.4280 ho         1 3L9       0.499000
    127 H48          1.1950     1.1900     3.8090 ha         1 3L9       0.147500
    128 H49          4.2580    -0.3000     2.9820 ho         1 3L9       0.499000
    129 H50          4.9710     1.2070     0.6850 h2         1 3L9       0.049700
    130 H51          6.2510    -1.5710     0.7490 h1         1 3L9       0.078700
    131 H52          6.6200    -0.9540     2.9000 ho         1 3L9       0.538000
    132 H53          7.5470     1.1870     0.9080 h1         1 3L9       0.051700
    133 H54          9.3990    -0.0380     1.1260 ho         1 3L9       0.524000
    134 H55          6.3220     0.7390    -2.5950 h1         1 3L9       0.060200
    135 H56          6.3290     1.8460    -1.2170 h1         1 3L9       0.060200
    136 H57          7.6410    -0.9260    -1.2840 h1         1 3L9       0.083700
    137 H58          8.4630     0.5470    -3.3630 h2         1 3L9       0.067700
    138 H59         10.6410    -0.9520    -0.8230 h1         1 3L9       0.051700
    139 H60         11.5560    -2.6860    -3.1680 hc         1 3L9       0.048367
    140 H61         12.0890    -2.8290    -1.4890 hc         1 3L9       0.048367
    141 H62         10.4210    -3.1780    -1.9020 hc         1 3L9       0.048367
    142 H63         12.3730    -0.2910    -3.2430 h1         1 3L9       0.071700
    143 H64         13.6310    -1.0670    -1.6040 ho         1 3L9       0.508000
    144 H65         11.2700     1.4800    -1.0260 h1         1 3L9       0.051700
    145 H66         12.3480     3.0880    -2.2480 ho         1 3L9       0.442000
    146 H67          9.9250     2.5430    -2.7370 h1         1 3L9       0.046700
    147 H68          9.9950     1.7300    -4.8460 ho         1 3L9       0.503000
    148 H11         -6.4140     1.1560    -4.2220 h1         1 3L9       0.069700
    149 O6D         -4.4540     1.8540    -4.0930 os         1 3L9      -0.444100
    150 H2          -3.7680     5.3980     0.8570 ha         1 3L9       0.139000
@<TRIPOS>BOND
     1     1     2 ar  
     2     1    53 ar  
     3     1    86 1   
     4     2     3 ar  
     5     2    52 1   
     6     3     4 ar  
     7     3    50 1   
     8     4    55 ar  
     9     4    56 1   
    10     5     6 ar  
    11     5    12 ar  
    12     5   150 1   
    13     6     7 1   
    14     6     8 ar  
    15     7    87 1   
    16     8     9 1   
    17     8    10 ar  
    18     9    88 1   
    19    10    11 ar  
    20    10    89 1   
    21    11    12 ar  
    22    11    90 1   
    23    12    13 1   
    24    13    14 2   
    25    13    91 1   
    26    14    15 1   
    27    14    92 1   
    28    15    16 2   
    29    15   149 1   
    30    17    18 1   
    31    17    93 1   
    32    17   148 1   
    33    17   149 1   
    34    18    19 1   
    35    18    20 1   
    36    18    94 1   
    37    19    37 1   
    38    20    21 1   
    39    20    22 1   
    40    20    95 1   
    41    21    96 1   
    42    22    23 1   
    43    22    24 1   
    44    22    97 1   
    45    23    98 1   
    46    24    25 1   
    47    24    37 1   
    48    24    99 1   
    49    25    26 1   
    50    26    27 1   
    51    26    35 1   
    52    26   100 1   
    53    27    28 1   
    54    28    29 1   
    55    28    31 1   
    56    28   101 1   
    57    29    30 1   
    58    29   102 1   
    59    29   103 1   
    60    30   104 1   
    61    31    32 1   
    62    31    33 1   
    63    31   105 1   
    64    32   106 1   
    65    33    34 1   
    66    33    35 1   
    67    33   107 1   
    68    34   108 1   
    69    35    36 1   
    70    35   109 1   
    71    36   110 1   
    72    37    38 1   
    73    37   111 1   
    74    38    39 1   
    75    39    40 1   
    76    39    47 1   
    77    39   112 1   
    78    40    41 1   
    79    40    42 1   
    80    40   113 1   
    81    41   114 1   
    82    42    43 1   
    83    42    44 1   
    84    42   115 1   
    85    43   116 1   
    86    44    45 1   
    87    44    46 1   
    88    44   117 1   
    89    45   118 1   
    90    45   119 1   
    91    45   120 1   
    92    46    47 1   
    93    47    48 1   
    94    47   121 1   
    95    48    49 1   
    96    49    50 1   
    97    49    57 2   
    98    50    51 2   
    99    52   122 1   
   100    53    54 1   
   101    53    55 ar  
   102    54   123 1   
   103    55   124 1   
   104    56    57 1   
   105    57    58 1   
   106    58    59 ar  
   107    58    62 ar  
   108    59    60 ar  
   109    59   125 1   
   110    60    61 1   
   111    60    65 ar  
   112    61   126 1   
   113    62    63 ar  
   114    62   127 1   
   115    63    64 1   
   116    63    65 ar  
   117    64   128 1   
   118    65    66 1   
   119    66    67 1   
   120    67    68 1   
   121    67    72 1   
   122    67   129 1   
   123    68    69 1   
   124    68    70 1   
   125    68   130 1   
   126    69   131 1   
   127    70    71 1   
   128    70    74 1   
   129    70   132 1   
   130    71   133 1   
   131    72    73 1   
   132    73    74 1   
   133    73   134 1   
   134    73   135 1   
   135    74    75 1   
   136    74   136 1   
   137    75    76 1   
   138    76    77 1   
   139    76    84 1   
   140    76   137 1   
   141    77    78 1   
   142    78    79 1   
   143    78    80 1   
   144    78   138 1   
   145    79   139 1   
   146    79   140 1   
   147    79   141 1   
   148    80    81 1   
   149    80    82 1   
   150    80   142 1   
   151    81   143 1   
   152    82    83 1   
   153    82    84 1   
   154    82   144 1   
   155    83   145 1   
   156    84    85 1   
   157    84   146 1   
   158    85   147 1   
@<TRIPOS>SUBSTRUCTURE
     1 3L9         1 TEMP              0 ****  ****    0 ROOT
