@<TRIPOS>MOLECULE
3LA
   36    35     1     0     0
SMALL
No Charge or Current Charge


@<TRIPOS>ATOM
      1 O21          3.2710     0.3200    -2.1010 o          1 3LA      -0.725000
      2 O22          4.8170     1.4340    -1.0990 o          1 3LA      -0.725000
      3 C21          4.1270     0.4380    -1.2410 c          1 3LA       0.734000
      4 C22          4.3010    -0.6950    -0.2600 c3         1 3LA      -0.332400
      5 C23          3.3450    -0.3880     0.8810 c          1 3LA       0.621100
      6 C24          1.9770    -1.0970     0.8920 c3         1 3LA      -0.181400
      7 C25          0.8250    -0.1340     0.5190 c3         1 3LA      -0.061400
      8 C26         -0.5620    -0.8130     0.5520 c3         1 3LA      -0.076400
      9 C27         -1.7140     0.1460     0.1840 c3         1 3LA      -0.074400
     10 C28         -3.1010    -0.5330     0.2170 c3         1 3LA      -0.075400
     11 C29         -4.2530     0.4260    -0.1510 c3         1 3LA      -0.074400
     12 C30         -5.6400    -0.2540    -0.1170 c3         1 3LA      -0.075400
     13 C31         -6.7930     0.7050    -0.4850 c3         1 3LA      -0.075400
     14 C32         -8.1760     0.0270    -0.4510 c3         1 3LA      -0.087100
     15 O15          3.6680     0.3640     1.7930 o          1 3LA      -0.579100
     16 H221         3.9780    -1.6330    -0.7260 hc         1 3LA       0.042200
     17 H222         5.3120    -0.6810     0.1650 hc         1 3LA       0.042200
     18 H241         1.9710    -1.9250     0.1740 hc         1 3LA       0.055700
     19 H242         1.7930    -1.4820     1.9010 hc         1 3LA       0.055700
     20 H251         0.8250     0.7160     1.2140 hc         1 3LA       0.045700
     21 H252         1.0010     0.2750    -0.4830 hc         1 3LA       0.045700
     22 H261        -0.5630    -1.6620    -0.1430 hc         1 3LA       0.032200
     23 H262        -0.7400    -1.2200     1.5560 hc         1 3LA       0.032200
     24 H271        -1.7130     0.9950     0.8790 hc         1 3LA       0.036200
     25 H272        -1.5370     0.5530    -0.8200 hc         1 3LA       0.036200
     26 H281        -3.1020    -1.3820    -0.4780 hc         1 3LA       0.034700
     27 H282        -3.2780    -0.9410     1.2210 hc         1 3LA       0.034700
     28 H291        -4.2520     1.2750     0.5440 hc         1 3LA       0.035700
     29 H292        -4.0770     0.8330    -1.1550 hc         1 3LA       0.035700
     30 H301        -5.6420    -1.1030    -0.8120 hc         1 3LA       0.035700
     31 H302        -5.8170    -0.6610     0.8870 hc         1 3LA       0.035700
     32 H311        -6.7950     1.5550     0.2090 hc         1 3LA       0.035200
     33 H312        -6.6200     1.1120    -1.4890 hc         1 3LA       0.035200
     34 H321        -8.2170    -0.8070    -1.1620 hc         1 3LA       0.028367
     35 H322        -8.3940    -0.3610     0.5510 hc         1 3LA       0.028367
     36 H323        -8.9600     0.7450    -0.7190 hc         1 3LA       0.028367
@<TRIPOS>BOND
     1     1     3 1   
     2     2     3 1   
     3     3     4 1   
     4     4     5 1   
     5     4    16 1   
     6     4    17 1   
     7     5     6 1   
     8     5    15 2   
     9     6     7 1   
    10     6    18 1   
    11     6    19 1   
    12     7     8 1   
    13     7    20 1   
    14     7    21 1   
    15     8     9 1   
    16     8    22 1   
    17     8    23 1   
    18     9    10 1   
    19     9    24 1   
    20     9    25 1   
    21    10    11 1   
    22    10    26 1   
    23    10    27 1   
    24    11    12 1   
    25    11    28 1   
    26    11    29 1   
    27    12    13 1   
    28    12    30 1   
    29    12    31 1   
    30    13    14 1   
    31    13    32 1   
    32    13    33 1   
    33    14    34 1   
    34    14    35 1   
    35    14    36 1   
@<TRIPOS>SUBSTRUCTURE
     1 3LA         1 TEMP              0 ****  ****    0 ROOT
