@<TRIPOS>MOLECULE
3LA
   36    35     1     0     0
SMALL
bcc


@<TRIPOS>ATOM
      1 O21          4.2380    -0.0200    -1.8480 o          1 3LA      -0.830300
      2 O22          5.9380    -1.3640    -1.3110 o          1 3LA      -0.830300
      3 C21          4.9180    -0.7010    -1.0590 c          1 3LA       0.944600
      4 C22          4.4400    -0.7270     0.4190 c3         1 3LA      -0.332400
      5 C23          3.2100     0.1160     0.5880 c          1 3LA       0.621100
      6 C24          1.8970    -0.5770     0.3430 c3         1 3LA      -0.181400
      7 C25          0.6700     0.3200     0.3480 c3         1 3LA      -0.061400
      8 C26         -0.6150    -0.4720     0.1390 c3         1 3LA      -0.076400
      9 C27         -1.8680     0.3940     0.1810 c3         1 3LA      -0.074400
     10 C28         -3.1510    -0.4020    -0.0230 c3         1 3LA      -0.075400
     11 C29         -4.4110     0.4520     0.0440 c3         1 3LA      -0.074400
     12 C30         -5.6900    -0.3480    -0.1620 c3         1 3LA      -0.075400
     13 C31         -6.9540     0.5000    -0.0860 c3         1 3LA      -0.075400
     14 C32         -8.2240    -0.3110    -0.3020 c3         1 3LA      -0.087100
     15 O15          3.2750     1.2840     0.9100 o          1 3LA      -0.579100
     16 H221         4.2470    -1.7640     0.7060 hc         1 3LA       0.042200
     17 H222         5.2420    -0.3540     1.0620 hc         1 3LA       0.042200
     18 H241         1.9740    -1.1280    -0.6000 hc         1 3LA       0.055700
     19 H242         1.8020    -1.3520     1.1140 hc         1 3LA       0.055700
     20 H251         0.6120     0.8610     1.2970 hc         1 3LA       0.045700
     21 H252         0.7630     1.0790    -0.4330 hc         1 3LA       0.045700
     22 H261        -0.5700    -0.9980    -0.8220 hc         1 3LA       0.032200
     23 H262        -0.6910    -1.2510     0.9060 hc         1 3LA       0.032200
     24 H271        -1.9130     0.9160     1.1440 hc         1 3LA       0.036200
     25 H272        -1.7980     1.1740    -0.5840 hc         1 3LA       0.036200
     26 H281        -3.1110    -0.9140    -0.9910 hc         1 3LA       0.034700
     27 H282        -3.2100    -1.1930     0.7340 hc         1 3LA       0.034700
     28 H291        -4.4510     0.9600     1.0140 hc         1 3LA       0.035700
     29 H292        -4.3530     1.2450    -0.7100 hc         1 3LA       0.035700
     30 H301        -5.6520    -0.8520    -1.1350 hc         1 3LA       0.035700
     31 H302        -5.7450    -1.1450     0.5880 hc         1 3LA       0.035700
     32 H311        -6.9960     0.9990     0.8870 hc         1 3LA       0.035200
     33 H312        -6.8990     1.2980    -0.8330 hc         1 3LA       0.035200
     34 H321        -8.2190    -0.7960    -1.2800 hc         1 3LA       0.028367
     35 H322        -8.3240    -1.0960     0.4510 hc         1 3LA       0.028367
     36 H323        -9.1160     0.3140    -0.2480 hc         1 3LA       0.028367
@<TRIPOS>BOND
     1     1     3 1   
     2     2     3 1   
     3     3     4 1   
     4     4     5 1   
     5     4    16 1   
     6     4    17 1   
     7     5     6 1   
     8     5    15 2   
     9     6     7 1   
    10     6    18 1   
    11     6    19 1   
    12     7     8 1   
    13     7    20 1   
    14     7    21 1   
    15     8     9 1   
    16     8    22 1   
    17     8    23 1   
    18     9    10 1   
    19     9    24 1   
    20     9    25 1   
    21    10    11 1   
    22    10    26 1   
    23    10    27 1   
    24    11    12 1   
    25    11    28 1   
    26    11    29 1   
    27    12    13 1   
    28    12    30 1   
    29    12    31 1   
    30    13    14 1   
    31    13    32 1   
    32    13    33 1   
    33    14    34 1   
    34    14    35 1   
    35    14    36 1   
@<TRIPOS>SUBSTRUCTURE
     1 3LA         1 TEMP              0 ****  ****    0 ROOT
