@<TRIPOS>MOLECULE
3LB
   86    88     1     0     0
SMALL
No Charge or Current Charge


@<TRIPOS>ATOM
      1 C1           6.8260    -3.0780    -0.5270 c3         1 3LB       0.028000
      2 C2           6.0900    -3.0770    -1.9020 c3         1 3LB      -0.086600
      3 C3           8.3410    -3.4670    -0.7440 c          1 3LB       0.733000
      4 O5          -0.3190     2.3610    -0.5820 o          1 3LB      -0.575100
      5 N6          -3.4880     2.2550    -0.8300 n          1 3LB      -0.235200
      6 C7           7.3820     1.9940     2.8700 cc         1 3LB       0.690300
      7 C9           2.6080     2.7290     0.9390 c3         1 3LB      -0.006300
      8 C10          2.9080     4.1930     1.3430 c          1 3LB       0.568900
      9 C11          1.3920     2.1440     1.7170 c3         1 3LB       0.099700
     10 C12          1.6730     1.9080     3.2240 c3         1 3LB      -0.077200
     11 C13          0.5340     1.1980     3.9350 c2         1 3LB      -0.208200
     12 C14          0.5860    -0.0540     4.4140 c2         1 3LB      -0.335000
     13 C16         -3.8540     1.4110     0.1840 c          1 3LB       0.578000
     14 C19         -3.7810    -0.1990    -4.2700 ce         1 3LB      -0.249200
     15 C20         -3.9140    -1.0850    -5.4410 c          1 3LB       0.567300
     16 C21         -4.5860    -2.4520    -5.2070 c6         1 3LB      -0.038000
     17 C22         -4.8510    -2.7120    -3.7230 c2         1 3LB       0.433200
     18 O12         -8.8000    -2.9500    -0.2670 o          1 3LB      -0.513500
     19 S2          -8.3030    -2.7410     1.0990 s6         1 3LB       1.085000
     20 O11         -8.8750    -1.6670     1.9200 o          1 3LB      -0.513500
     21 C26         -8.4980    -4.2790     1.9950 c3         1 3LB      -0.341100
     22 C25         -6.5130    -2.4910     1.0140 c3         1 3LB      -0.296400
     23 N7          -4.1730     0.2380    -0.4800 n          1 3LB      -0.310300
     24 O8          -3.8860     1.6230     1.3870 o          1 3LB      -0.546000
     25 C17         -3.9890     0.4090    -1.8550 cd         1 3LB       0.448200
     26 C18         -4.1500    -0.5350    -3.0030 cf         1 3LB       0.082000
     27 N9          -4.6640    -1.8310    -2.7630 nf         1 3LB      -0.577300
     28 O10         -5.8020    -2.5770    -6.0090 oh         1 3LB      -0.609000
     29 N8          -3.5640     1.6550    -2.0780 nc         1 3LB      -0.413300
     30 S1          -2.9330     3.9020    -0.5230 s6         1 3LB       1.372600
     31 O6          -2.3930     4.4170    -1.7890 o          1 3LB      -0.507500
     32 O7          -4.0250     4.6010     0.1650 o          1 3LB      -0.507500
     33 N5          -1.6840     3.7480     0.5690 ns         1 3LB      -0.619300
     34 N4           0.1900     2.9730     1.5500 ns         1 3LB      -0.500900
     35 N3           3.8290     1.8870     1.0500 ns         1 3LB      -0.482900
     36 O3           3.1230     0.1720    -0.2400 o          1 3LB      -0.580100
     37 C4           5.2910    -0.1010     0.8010 cf         1 3LB       0.212300
     38 N            5.4070    -1.2930     0.2760 n2         1 3LB      -0.264700
     39 O2           6.7390    -1.7320     0.0430 os         1 3LB      -0.242000
     40 O1           8.6000    -4.5680    -1.2190 o          1 3LB      -0.703500
     41 O            9.2180    -2.6660    -0.4370 o          1 3LB      -0.703500
     42 C            6.1740    -4.0780     0.4760 c3         1 3LB      -0.086600
     43 C5           6.2560     0.4350     1.7950 cd         1 3LB       0.326700
     44 N1           6.5100     1.8040     1.9220 nd         1 3LB      -0.733000
     45 S            7.9710     0.6140     3.7400 ss         1 3LB      -0.138400
     46 C6           6.9450    -0.3440     2.7080 cc         1 3LB      -0.239000
     47 H1           6.2030    -4.0450    -2.4040 hc         1 3LB       0.029367
     48 H2           5.0140    -2.8940    -1.7920 hc         1 3LB       0.029367
     49 H3           6.5060    -2.3050    -2.5610 hc         1 3LB       0.029367
     50 H4           2.3310     2.7760    -0.1220 h1         1 3LB       0.115700
     51 H5           2.1220     4.9320     1.0730 h4         1 3LB      -0.014800
     52 H6           1.1730     1.1590     1.2790 h1         1 3LB       0.115700
     53 H7           2.5890     1.3130     3.3290 hc         1 3LB       0.071700
     54 H8           1.8790     2.8660     3.7170 hc         1 3LB       0.071700
     55 H9          -0.3760     1.7930     4.0540 ha         1 3LB       0.165000
     56 H11         -0.2680    -0.5060     4.9210 ha         1 3LB       0.162500
     57 H12          1.4800    -0.6730     4.3170 ha         1 3LB       0.162500
     58 H14         -3.3530     0.7780    -4.4830 ha         1 3LB       0.251000
     59 H15         -3.8420    -3.1910    -5.5360 h1         1 3LB       0.072700
     60 H16         -5.2340    -3.6960    -3.4680 h4         1 3LB       0.035800
     61 H17         -6.4990    -1.2030    -0.7480 hc         1 3LB       0.083700
     62 H18         -6.5530    -0.3220     0.7780 hc         1 3LB       0.083700
     63 H19         -7.9920    -5.0650     1.4240 h1         1 3LB       0.102367
     64 H20         -8.0420    -4.1510     2.9820 h1         1 3LB       0.102367
     65 H21         -9.5710    -4.4800     2.0780 h1         1 3LB       0.102367
     66 H22         -6.1040    -3.3700     0.5020 h1         1 3LB       0.091700
     67 H23         -6.1550    -2.4770     2.0500 h1         1 3LB       0.091700
     68 H24         -4.1870    -0.9560     1.2530 h1         1 3LB       0.063700
     69 H25         -4.1020    -1.8570    -0.2560 h1         1 3LB       0.063700
     70 H26         -6.0930    -3.5180    -5.9860 ho         1 3LB       0.450000
     71 H27         -1.8980     4.1880     1.4450 hn         1 3LB       0.346500
     72 H28         -0.1320     3.5160     2.3410 hn         1 3LB       0.312500
     73 H29          4.6250     2.2490     1.5770 hn         1 3LB       0.339500
     74 H31          6.6510    -4.0010     1.4610 hc         1 3LB       0.029367
     75 H32          5.0990    -3.8980     0.5970 hc         1 3LB       0.029367
     76 H33          6.2910    -5.1100     0.1250 hc         1 3LB       0.029367
     77 H34          7.1010     3.9480     2.7600 hn         1 3LB       0.474000
     78 H35          8.0940     3.4340     4.0720 hn         1 3LB       0.474000
     79 H36          6.9120    -1.4190     2.8270 h4         1 3LB       0.178000
     80 C8           4.0020     0.6360     0.4820 c          1 3LB       0.544800
     81 C15         -0.5900     2.9840     0.4260 c          1 3LB       0.667100
     82 O4           3.9360     4.5500     1.9120 o          1 3LB      -0.510100
     83 C23         -4.5740    -0.9920     0.2260 c3         1 3LB       0.143000
     84 N2           7.7250     3.2510     3.1460 nv         1 3LB      -1.051900
     85 O9          -3.5180    -0.7410    -6.5480 o          1 3LB      -0.451100
     86 C24         -6.1030    -1.1890     0.2760 c3         1 3LB      -0.074400
@<TRIPOS>BOND
     1     1     2 1   
     2     1     3 1   
     3     1    39 1   
     4     1    42 1   
     5     2    47 1   
     6     2    48 1   
     7     2    49 1   
     8     3    40 1   
     9     3    41 1   
    10     4    81 2   
    11     5    13 1   
    12     5    29 1   
    13     5    30 1   
    14     6    44 2   
    15     6    45 1   
    16     6    84 1   
    17     7     8 1   
    18     7     9 1   
    19     7    35 1   
    20     7    50 1   
    21     8    51 1   
    22     8    82 2   
    23     9    10 1   
    24     9    34 1   
    25     9    52 1   
    26    10    11 1   
    27    10    53 1   
    28    10    54 1   
    29    11    12 2   
    30    11    55 1   
    31    12    56 1   
    32    12    57 1   
    33    13    23 1   
    34    13    24 2   
    35    14    15 1   
    36    14    26 2   
    37    14    58 1   
    38    15    16 1   
    39    15    85 2   
    40    16    17 1   
    41    16    28 1   
    42    16    59 1   
    43    17    27 2   
    44    17    60 1   
    45    18    19 2   
    46    19    20 2   
    47    19    21 1   
    48    19    22 1   
    49    21    63 1   
    50    21    64 1   
    51    21    65 1   
    52    22    66 1   
    53    22    67 1   
    54    22    86 1   
    55    23    25 1   
    56    23    83 1   
    57    25    26 1   
    58    25    29 2   
    59    26    27 1   
    60    28    70 1   
    61    30    31 2   
    62    30    32 2   
    63    30    33 1   
    64    33    71 1   
    65    33    81 1   
    66    34    72 1   
    67    34    81 1   
    68    35    73 1   
    69    35    80 1   
    70    36    80 2   
    71    37    38 2   
    72    37    43 1   
    73    37    80 1   
    74    38    39 1   
    75    42    74 1   
    76    42    75 1   
    77    42    76 1   
    78    43    44 1   
    79    43    46 2   
    80    45    46 1   
    81    46    79 1   
    82    61    86 1   
    83    62    86 1   
    84    68    83 1   
    85    69    83 1   
    86    77    84 1   
    87    78    84 1   
    88    83    86 1   
@<TRIPOS>SUBSTRUCTURE
     1 3LB         1 TEMP              0 ****  ****    0 ROOT
