@<TRIPOS>MOLECULE
3LB
   86    88     1     0     0
SMALL
abcg2


@<TRIPOS>ATOM
      1 C1           7.4520    -0.9220    -1.2240 c3         1 3LB       0.028000
      2 C2           7.5590    -2.3660    -1.7010 c3         1 3LB      -0.086600
      3 C3           7.6210     0.0380    -2.4330 c          1 3LB       0.733000
      4 O5          -0.1410     2.0440    -1.4050 o          1 3LB      -0.575100
      5 N6          -2.9980     2.4630    -1.4620 n          1 3LB      -0.235200
      6 C7           2.8880    -2.2540     3.7220 cc         1 3LB       0.690300
      7 C9           2.9930     2.1440     0.4790 c3         1 3LB      -0.006300
      8 C10          3.5090     3.4130     1.1040 c          1 3LB       0.568900
      9 C11          1.5160     1.8830     0.8880 c3         1 3LB       0.099700
     10 C12          1.3470     1.5670     2.3740 c3         1 3LB      -0.077200
     11 C13         -0.0530     1.1080     2.6630 c2         1 3LB      -0.208200
     12 C14         -0.4370    -0.1620     2.5770 c2         1 3LB      -0.335000
     13 C16         -3.3670     1.9840    -0.2160 c          1 3LB       0.578000
     14 C19         -2.9620    -1.0850    -3.6400 ce         1 3LB      -0.249200
     15 C20         -3.2530    -2.3030    -4.3950 c          1 3LB       0.567300
     16 C21         -3.9750    -3.3610    -3.5860 c6         1 3LB      -0.038000
     17 C22         -4.8520    -2.7640    -2.5270 c2         1 3LB       0.433200
     18 O12         -8.3320    -1.7970     1.0490 o          1 3LB      -0.513500
     19 S2          -7.6880    -1.2020     2.2210 s6         1 3LB       1.085000
     20 O11         -8.1120     0.1400     2.6240 o          1 3LB      -0.513500
     21 C26         -7.8880    -2.3010     3.6030 c3         1 3LB      -0.341100
     22 C25         -5.9190    -1.1750     1.9450 c3         1 3LB      -0.296400
     23 N7          -3.6790     0.6750    -0.4850 n          1 3LB      -0.310300
     24 O8          -3.3820     2.5740     0.8390 o          1 3LB      -0.546000
     25 C17         -3.4660     0.4580    -1.8230 cd         1 3LB       0.448200
     26 C18         -3.6680    -0.8120    -2.5270 cf         1 3LB       0.082000
     27 N9          -4.6780    -1.6180    -2.0040 nf         1 3LB      -0.577300
     28 O10         -4.6150    -4.2800    -4.4030 oh         1 3LB      -0.609000
     29 N8          -3.0480     1.5160    -2.4280 nc         1 3LB      -0.413300
     30 S1          -2.2840     3.9700    -1.7420 s6         1 3LB       1.372600
     31 O6          -1.8040     3.9200    -3.0910 o          1 3LB      -0.507500
     32 O7          -3.2000     4.9840    -1.2960 o          1 3LB      -0.507500
     33 N5          -1.0520     3.9840    -0.6520 ns         1 3LB      -0.619300
     34 N4           0.6610     2.9870     0.5050 ns         1 3LB      -0.500900
     35 N3           3.8530     1.0490     0.8280 ns         1 3LB      -0.482900
     36 O3           2.9900    -0.4710    -0.6140 o          1 3LB      -0.580100
     37 C4           4.7100    -1.1890     0.8620 cf         1 3LB       0.212300
     38 N            5.8540    -1.4360     0.3640 n2         1 3LB      -0.264700
     39 O2           6.1320    -0.6680    -0.7070 os         1 3LB      -0.242000
     40 O1           8.7420    -0.0110    -2.9770 o          1 3LB      -0.703500
     41 O            6.6570     0.7480    -2.7570 o          1 3LB      -0.703500
     42 C            8.4990    -0.6170    -0.1600 c3         1 3LB      -0.086600
     43 C5           4.2430    -1.9620     2.0110 cd         1 3LB       0.326700
     44 N1           3.1710    -1.4810     2.7200 nd         1 3LB      -0.733000
     45 S            3.9220    -3.6520     3.8590 ss         1 3LB      -0.138400
     46 C6           4.7800    -3.1250     2.4590 cc         1 3LB      -0.239000
     47 H1           8.5420    -2.5370    -2.1360 hc         1 3LB       0.029367
     48 H2           7.4290    -3.0680    -0.8750 hc         1 3LB       0.029367
     49 H3           6.8100    -2.5910    -2.4630 hc         1 3LB       0.029367
     50 H4           2.9980     2.3080    -0.6070 h1         1 3LB       0.115700
     51 H5           2.9510     4.3200     0.8280 h4         1 3LB      -0.014800
     52 H6           1.1930     1.0120     0.3200 h1         1 3LB       0.115700
     53 H7           2.0530     0.7770     2.6340 hc         1 3LB       0.071700
     54 H8           1.5960     2.4410     2.9840 hc         1 3LB       0.071700
     55 H9          -0.7850     1.8670     2.9200 ha         1 3LB       0.165000
     56 H11         -1.4580    -0.4630     2.7680 ha         1 3LB       0.162500
     57 H12          0.2590    -0.9460     2.2980 ha         1 3LB       0.162500
     58 H14         -2.2480    -0.3770    -4.0420 ha         1 3LB       0.251000
     59 H15         -3.1480    -3.8160    -3.0010 h1         1 3LB       0.072700
     60 H16         -5.6600    -3.3810    -2.1410 h4         1 3LB       0.035800
     61 H17         -6.0910    -0.5020    -0.0990 hc         1 3LB       0.083700
     62 H18         -5.8840     0.7980     1.0820 hc         1 3LB       0.083700
     63 H19         -7.5090    -3.2860     3.3420 h1         1 3LB       0.102367
     64 H20         -7.3570    -1.9030     4.4640 h1         1 3LB       0.102367
     65 H21         -8.9550    -2.3570     3.8160 h1         1 3LB       0.102367
     66 H22         -5.6180    -2.1980     1.7120 h1         1 3LB       0.091700
     67 H23         -5.4510    -0.8810     2.8860 h1         1 3LB       0.091700
     68 H24         -3.5350     0.0590     1.4680 h1         1 3LB       0.063700
     69 H25         -3.7340    -1.2410     0.3090 h1         1 3LB       0.063700
     70 H26         -4.6130    -5.1410    -3.9730 ho         1 3LB       0.450000
     71 H27         -1.1750     4.6340     0.1170 hn         1 3LB       0.346500
     72 H28          0.5430     3.7450     1.1620 hn         1 3LB       0.312500
     73 H29          4.5170     1.1980     1.5740 hn         1 3LB       0.339500
     74 H31          8.4040     0.4060     0.2120 hc         1 3LB       0.029367
     75 H32          8.4160    -1.2980     0.6890 hc         1 3LB       0.029367
     76 H33          9.4950    -0.7280    -0.5840 hc         1 3LB       0.029367
     77 H34          1.2450    -1.3040     4.3900 hn         1 3LB       0.474000
     78 H35          1.5670    -2.7610     5.1880 hn         1 3LB       0.474000
     79 H36          5.6000    -3.6930     2.0520 h4         1 3LB       0.178000
     80 C8           3.7650    -0.1670     0.2750 c          1 3LB       0.544800
     81 C15         -0.1440     2.9210    -0.5680 c          1 3LB       0.667100
     82 O4           4.4560     3.4580     1.8460 o          1 3LB      -0.510100
     83 C23         -4.0750    -0.2420     0.5690 c3         1 3LB       0.143000
     84 N2           1.9320    -1.9990     4.6410 nv         1 3LB      -1.051900
     85 O9          -2.9030    -2.4770    -5.5380 o          1 3LB      -0.451100
     86 C24         -5.5750    -0.2140     0.8170 c3         1 3LB      -0.074400
@<TRIPOS>BOND
     1     1     2 1   
     2     1     3 1   
     3     1    39 1   
     4     1    42 1   
     5     2    47 1   
     6     2    48 1   
     7     2    49 1   
     8     3    40 1   
     9     3    41 1   
    10     4    81 2   
    11     5    13 1   
    12     5    29 1   
    13     5    30 1   
    14     6    44 2   
    15     6    45 1   
    16     6    84 1   
    17     7     8 1   
    18     7     9 1   
    19     7    35 1   
    20     7    50 1   
    21     8    51 1   
    22     8    82 2   
    23     9    10 1   
    24     9    34 1   
    25     9    52 1   
    26    10    11 1   
    27    10    53 1   
    28    10    54 1   
    29    11    12 2   
    30    11    55 1   
    31    12    56 1   
    32    12    57 1   
    33    13    23 1   
    34    13    24 2   
    35    14    15 1   
    36    14    26 2   
    37    14    58 1   
    38    15    16 1   
    39    15    85 2   
    40    16    17 1   
    41    16    28 1   
    42    16    59 1   
    43    17    27 2   
    44    17    60 1   
    45    18    19 2   
    46    19    20 2   
    47    19    21 1   
    48    19    22 1   
    49    21    63 1   
    50    21    64 1   
    51    21    65 1   
    52    22    66 1   
    53    22    67 1   
    54    22    86 1   
    55    23    25 1   
    56    23    83 1   
    57    25    26 1   
    58    25    29 2   
    59    26    27 1   
    60    28    70 1   
    61    30    31 2   
    62    30    32 2   
    63    30    33 1   
    64    33    71 1   
    65    33    81 1   
    66    34    72 1   
    67    34    81 1   
    68    35    73 1   
    69    35    80 1   
    70    36    80 2   
    71    37    38 2   
    72    37    43 1   
    73    37    80 1   
    74    38    39 1   
    75    42    74 1   
    76    42    75 1   
    77    42    76 1   
    78    43    44 1   
    79    43    46 2   
    80    45    46 1   
    81    46    79 1   
    82    61    86 1   
    83    62    86 1   
    84    68    83 1   
    85    69    83 1   
    86    77    84 1   
    87    78    84 1   
    88    83    86 1   
@<TRIPOS>SUBSTRUCTURE
     1 3LB         1 TEMP              0 ****  ****    0 ROOT
