@<TRIPOS>MOLECULE
3LC
   83    85     1     0     0
SMALL
abcg2


@<TRIPOS>ATOM
      1 C1           3.0390     1.2570    -2.6910 c3         1 3LC       0.064000
      2 C2           4.1210     2.2040    -3.2030 c3         1 3LC      -0.092100
      3 C3           2.8000     0.1560    -3.7450 c          1 3LC       0.731000
      4 O5          -2.6370    -0.7940     2.2080 o          1 3LC      -0.617100
      5 N6          -4.6950    -1.4100     0.3260 n          1 3LC      -0.230200
      6 C7           4.0440     1.7300     4.0290 cc         1 3LC       0.696300
      7 C9           1.0190    -1.7850     1.0710 c3         1 3LC      -0.009300
      8 C10          0.2480    -2.1580    -0.1830 c          1 3LC       0.559900
      9 C11          0.0530    -1.5750     2.2720 c3         1 3LC       0.129900
     10 C12          0.8080    -1.6550     3.5670 c2         1 3LC      -0.218200
     11 C13          0.4420    -2.3580     4.6290 c2         1 3LC      -0.325000
     12 C15         -4.6100    -0.0130     0.4330 c          1 3LC       0.590000
     13 C16         -3.4010    -0.8390    -1.2460 cc         1 3LC       0.419600
     14 C19         -1.0800    -2.4620    -3.8320 c          1 3LC       0.558300
     15 C20         -0.5130    -1.1960    -4.3420 ce         1 3LC       0.146900
     16 C21         -1.0030    -0.0250    -3.8550 cf         1 3LC      -0.184400
     17 C24         -1.2790     3.1210    -0.1400 c3         1 3LC      -0.283400
     18 O12         -0.7040     3.5520     2.4090 o          1 3LC      -0.530000
     19 S2          -0.0300     3.2940     1.1370 s6         1 3LC       1.088000
     20 O11          0.8520     2.1260     1.0670 o          1 3LC      -0.530000
     21 C25          0.9160     4.7260     0.6840 c3         1 3LC      -0.339100
     22 C23         -1.9290     1.7540     0.0140 c3         1 3LC      -0.087400
     23 N7          -3.7940     0.3200    -0.6260 n          1 3LC      -0.315300
     24 O8          -5.1570     0.7210     1.2110 o          1 3LC      -0.486000
     25 C17         -2.4940    -0.9690    -2.3810 ce         1 3LC       0.302000
     26 N9          -1.9430     0.0790    -2.8560 nf         1 3LC      -0.504300
     27 C18         -2.2710    -2.3390    -2.9220 c6         1 3LC      -0.237700
     28 N8          -3.9250    -1.8840    -0.6990 nd         1 3LC      -0.555300
     29 S1          -4.8910    -2.4940     1.6050 s6         1 3LC       1.359600
     30 O6          -5.4860    -1.7580     2.6820 o          1 3LC      -0.516500
     31 O7          -5.4960    -3.6810     1.0670 o          1 3LC      -0.516500
     32 N5          -3.3310    -2.9360     1.9670 ns         1 3LC      -0.606300
     33 N4          -1.0870    -2.4580     2.2020 ns         1 3LC      -0.505900
     34 N3           1.7960    -0.5960     0.8950 ns         1 3LC      -0.486900
     35 O3           3.8650    -1.5430     0.8300 o          1 3LC      -0.587100
     36 C4           3.6730     0.8290     0.6190 cf         1 3LC       0.274300
     37 N            3.8210     1.3780    -0.5160 n2         1 3LC      -0.289700
     38 O2           3.4810     0.5410    -1.5300 os         1 3LC      -0.259000
     39 O1           3.3510    -0.9310    -3.6100 o          1 3LC      -0.673000
     40 O            2.0520     0.5060    -4.7110 o          1 3LC      -0.673000
     41 C            1.7530     2.0070    -2.3660 c3         1 3LC      -0.092100
     42 C5           4.0040     1.5610     1.8370 cd         1 3LC       0.333700
     43 N1           3.7460     0.9510     3.0370 nd         1 3LC      -0.709000
     44 S            4.6770     3.2840     3.5520 ss         1 3LC      -0.143400
     45 C6           4.5150     2.8160     1.9020 cc         1 3LC      -0.255000
     46 H1           5.0610     1.6760    -3.3730 hc         1 3LC       0.033533
     47 H2           3.8070     2.6460    -4.1490 hc         1 3LC       0.033533
     48 H3           4.3040     3.0150    -2.4990 hc         1 3LC       0.033533
     49 H4           1.6880    -2.6240     1.2870 h1         1 3LC       0.097700
     50 H5          -0.1390    -3.1900    -0.1960 h4         1 3LC      -0.020800
     51 H6          -0.3400    -0.5590     2.1740 h1         1 3LC       0.102700
     52 H7           1.7170    -1.0600     3.5910 ha         1 3LC       0.208000
     53 H9          -0.4610    -2.9550     4.6530 ha         1 3LC       0.158000
     54 H10          1.0450    -2.3560     5.5270 ha         1 3LC       0.158000
     55 H12         -0.6000     0.9190    -4.1990 h4         1 3LC       0.222000
     56 H13         -3.9810     2.3490    -0.3360 h1         1 3LC       0.077200
     57 H14         -3.1170     1.8970    -1.8020 h1         1 3LC       0.077200
     58 H15         -1.9800     3.9460    -0.0060 h1         1 3LC       0.098700
     59 H16         -0.7940     3.2280    -1.1110 h1         1 3LC       0.098700
     60 H17          0.2730     5.6020     0.6840 h1         1 3LC       0.105367
     61 H18          1.7030     4.8350     1.4290 h1         1 3LC       0.105367
     62 H19          1.3570     4.5780    -0.2990 h1         1 3LC       0.105367
     63 H20         -2.1250     1.5370     1.0660 hc         1 3LC       0.082200
     64 H21         -1.2420     0.9930    -0.3570 hc         1 3LC       0.082200
     65 H22          1.1520    -0.5260    -5.1020 ho         1 3LC       0.574000
     66 H23         -3.1480    -2.6020    -3.5310 hc         1 3LC       0.084200
     67 H24         -2.2300    -3.0970    -2.1390 hc         1 3LC       0.084200
     68 H25         -3.0930    -3.8880     1.7100 hn         1 3LC       0.343500
     69 H26         -0.9340    -3.4540     2.2670 hn         1 3LC       0.322500
     70 H27          1.3080     0.2910     0.8250 hn         1 3LC       0.362500
     71 H29          1.9410     2.7680    -1.6070 hc         1 3LC       0.033533
     72 H30          1.3650     2.5030    -3.2530 hc         1 3LC       0.033533
     73 H31          0.9880     1.3280    -1.9860 hc         1 3LC       0.033533
     74 H32          3.3630     0.5870     5.5310 hn         1 3LC       0.473500
     75 H33          3.8910     2.1130     6.0240 hn         1 3LC       0.473500
     76 H34          4.7830     3.4800     1.0970 h4         1 3LC       0.171000
     77 C8           3.1310    -0.5730     0.7830 c          1 3LC       0.546800
     78 C14         -2.3420    -1.9720     2.1460 c          1 3LC       0.674100
     79 C22         -3.2440     1.6630    -0.7510 c3         1 3LC       0.138000
     80 O10          0.4670    -1.3090    -5.2110 oh         1 3LC      -0.582100
     81 N2           3.9490     1.3830     5.3330 nv         1 3LC      -1.041900
     82 O4           0.0730    -1.4120    -1.1080 o          1 3LC      -0.477100
     83 O9          -0.6390    -3.5410    -4.1650 o          1 3LC      -0.497100
@<TRIPOS>BOND
     1     1     2 1   
     2     1     3 1   
     3     1    38 1   
     4     1    41 1   
     5     2    46 1   
     6     2    47 1   
     7     2    48 1   
     8     3    39 1   
     9     3    40 1   
    10     4    78 2   
    11     5    12 1   
    12     5    28 1   
    13     5    29 1   
    14     6    43 2   
    15     6    44 1   
    16     6    81 1   
    17     7     8 1   
    18     7     9 1   
    19     7    34 1   
    20     7    49 1   
    21     8    50 1   
    22     8    82 2   
    23     9    10 1   
    24     9    33 1   
    25     9    51 1   
    26    10    11 2   
    27    10    52 1   
    28    11    53 1   
    29    11    54 1   
    30    12    23 1   
    31    12    24 2   
    32    13    23 1   
    33    13    25 1   
    34    13    28 2   
    35    14    15 1   
    36    14    27 1   
    37    14    83 2   
    38    15    16 2   
    39    15    80 1   
    40    16    26 1   
    41    16    55 1   
    42    17    19 1   
    43    17    22 1   
    44    17    58 1   
    45    17    59 1   
    46    18    19 2   
    47    19    20 2   
    48    19    21 1   
    49    21    60 1   
    50    21    61 1   
    51    21    62 1   
    52    22    63 1   
    53    22    64 1   
    54    22    79 1   
    55    23    79 1   
    56    25    26 2   
    57    25    27 1   
    58    27    66 1   
    59    27    67 1   
    60    29    30 2   
    61    29    31 2   
    62    29    32 1   
    63    32    68 1   
    64    32    78 1   
    65    33    69 1   
    66    33    78 1   
    67    34    70 1   
    68    34    77 1   
    69    35    77 2   
    70    36    37 2   
    71    36    42 1   
    72    36    77 1   
    73    37    38 1   
    74    41    71 1   
    75    41    72 1   
    76    41    73 1   
    77    42    43 1   
    78    42    45 2   
    79    44    45 1   
    80    45    76 1   
    81    56    79 1   
    82    57    79 1   
    83    65    80 1   
    84    74    81 1   
    85    75    81 1   
@<TRIPOS>SUBSTRUCTURE
     1 3LC         1 TEMP              0 ****  ****    0 ROOT
