@<TRIPOS>MOLECULE
3LC
   83    85     1     0     0
SMALL
No Charge or Current Charge


@<TRIPOS>ATOM
      1 C1           2.5730     1.1490    -1.4350 c3         1 3LC       0.064000
      2 C2           3.1770     2.5820    -1.4180 c3         1 3LC      -0.092100
      3 C3           3.0050     0.4370    -2.7780 c          1 3LC       0.731000
      4 O5          -0.8500    -1.1800     2.7460 o          1 3LC      -0.617100
      5 N6          -3.6070    -0.5870     0.9700 n          1 3LC      -0.230200
      6 C7           5.2640     1.5620     4.7640 cc         1 3LC       0.696300
      7 C9           1.5370    -3.0730     1.3760 c3         1 3LC      -0.009300
      8 C10          0.6960    -3.3460     0.1090 c          1 3LC       0.559900
      9 C11          0.8250    -3.5450     2.6800 c3         1 3LC       0.129900
     10 C12          1.1820    -4.9810     3.0140 c2         1 3LC      -0.218200
     11 C13          0.7140    -6.0850     2.4020 c2         1 3LC      -0.325000
     12 C15         -3.8250     0.7560     0.7820 c          1 3LC       0.590000
     13 C16         -3.0420    -0.2820    -1.0680 cc         1 3LC       0.419600
     14 C19         -1.0610    -2.1310    -3.6470 c          1 3LC       0.558300
     15 C20         -0.3890    -0.9130    -4.2530 ce         1 3LC       0.146900
     16 C21         -0.9290     0.3220    -4.0650 cf         1 3LC      -0.184400
     17 C24         -2.4830     4.4750    -1.8830 c3         1 3LC      -0.283400
     18 O12         -0.8110     5.9310    -0.4120 o          1 3LC      -0.530000
     19 S2          -1.0000     5.5080    -1.8050 s6         1 3LC       1.088000
     20 O11          0.0850     4.8040    -2.4980 o          1 3LC      -0.530000
     21 C25         -1.4130     6.9590    -2.7670 c3         1 3LC      -0.339100
     22 C23         -2.3380     3.1310    -1.1210 c3         1 3LC      -0.087400
     23 N7          -3.4360     0.9470    -0.5240 n          1 3LC      -0.315300
     24 O8          -4.2740     1.5920     1.5530 o          1 3LC      -0.486000
     25 C17         -2.4940    -0.4320    -2.4490 ce         1 3LC       0.302000
     26 N9          -2.0680     0.5210    -3.2570 nf         1 3LC      -0.504300
     27 C18         -2.4360    -1.8520    -3.0360 c6         1 3LC      -0.237700
     28 N8          -3.1360    -1.2750    -0.1720 nd         1 3LC      -0.555300
     29 S1          -3.8790    -1.3610     2.5430 s6         1 3LC       1.359600
     30 O6          -3.6710    -0.3530     3.5900 o          1 3LC      -0.516500
     31 O7          -5.1560    -2.0790     2.4380 o          1 3LC      -0.516500
     32 N5          -2.6790    -2.5120     2.6510 ns         1 3LC      -0.606300
     33 N4          -0.6360    -3.4470     2.6410 ns         1 3LC      -0.505900
     34 N3           1.9610    -1.6500     1.4120 ns         1 3LC      -0.486900
     35 O3           3.5440    -1.8410     3.0180 o          1 3LC      -0.587100
     36 C4           3.2910     0.3500     2.0010 cf         1 3LC       0.274300
     37 N            2.7630     0.9620     0.9730 n2         1 3LC      -0.289700
     38 O2           3.1190     0.4160    -0.2910 os         1 3LC      -0.259000
     39 O1           3.8920    -0.4070    -2.7440 o          1 3LC      -0.673000
     40 O            2.3540     0.6560    -3.7970 o          1 3LC      -0.673000
     41 C            1.0210     1.1890    -1.3120 c3         1 3LC      -0.092100
     42 C5           4.2650     1.0380     2.8720 cd         1 3LC       0.333700
     43 N1           4.3170     0.8270     4.2540 nd         1 3LC      -0.709000
     44 S            6.1740     2.5890     3.7020 ss         1 3LC      -0.143400
     45 C6           5.1880     1.9600     2.4120 cc         1 3LC      -0.255000
     46 H1           4.2730     2.5400    -1.3960 hc         1 3LC       0.033533
     47 H2           2.8790     3.1330    -2.3180 hc         1 3LC       0.033533
     48 H3           2.8340     3.1590    -0.5510 hc         1 3LC       0.033533
     49 H4           2.4480    -3.6740     1.2610 h1         1 3LC       0.097700
     50 H5           0.4810    -4.4150    -0.1050 h4         1 3LC      -0.020800
     51 H6           1.1780    -2.9160     3.5100 h1         1 3LC       0.102700
     52 H7           1.8950    -5.0710     3.8380 ha         1 3LC       0.208000
     53 H9           0.0040    -6.0400     1.5760 ha         1 3LC       0.158000
     54 H10          1.0320    -7.0810     2.7130 ha         1 3LC       0.158000
     55 H12         -0.4610     1.2210    -4.4930 h4         1 3LC       0.222000
     56 H13         -4.4420     2.7860    -0.7580 h1         1 3LC       0.077200
     57 H14         -3.8630     2.0780    -2.2600 h1         1 3LC       0.077200
     58 H15         -3.2990     5.0750    -1.4630 h1         1 3LC       0.098700
     59 H16         -2.6740     4.2960    -2.9470 h1         1 3LC       0.098700
     60 H17         -2.2820     7.4340    -2.2990 h1         1 3LC       0.105367
     61 H18         -0.5430     7.6230    -2.7520 h1         1 3LC       0.105367
     62 H19         -1.6410     6.6300    -3.7860 h1         1 3LC       0.105367
     63 H20         -2.1130     3.3250    -0.0640 hc         1 3LC       0.082200
     64 H21         -1.4870     2.5750    -1.5280 hc         1 3LC       0.082200
     65 H22          1.3870    -0.3340    -4.6020 ho         1 3LC       0.574000
     66 H23         -3.1460    -1.8530    -3.8720 hc         1 3LC       0.084200
     67 H24         -2.7190    -2.6550    -2.3440 hc         1 3LC       0.084200
     68 H25         -3.0410    -3.4380     2.5250 hn         1 3LC       0.343500
     69 H26         -1.1590    -4.3110     2.6430 hn         1 3LC       0.322500
     70 H27          1.5340    -1.0020     0.7550 hn         1 3LC       0.362500
     71 H29          0.6880     1.7010    -0.4020 hc         1 3LC       0.033533
     72 H30          0.5930     1.7360    -2.1590 hc         1 3LC       0.033533
     73 H31          0.6030     0.1760    -1.3150 hc         1 3LC       0.033533
     74 H32          4.7000     1.0810     6.6030 hn         1 3LC       0.473500
     75 H33          5.9230     2.2920     6.5150 hn         1 3LC       0.473500
     76 H34          5.3410     2.3020     1.3960 h4         1 3LC       0.171000
     77 C8           2.9640    -1.1200     2.2110 c          1 3LC       0.546800
     78 C14         -1.3550    -2.2850     2.6820 c          1 3LC       0.674100
     79 C22         -3.5980     2.2470    -1.2080 c3         1 3LC       0.138000
     80 O10          0.7910    -1.0790    -4.9220 oh         1 3LC      -0.582100
     81 N2           5.4580     1.5030     6.0820 nv         1 3LC      -1.041900
     82 O4           0.2900    -2.4620    -0.6390 o          1 3LC      -0.477100
     83 O9          -0.5320    -3.2360    -3.5550 o          1 3LC      -0.497100
@<TRIPOS>BOND
     1     1     2 1   
     2     1     3 1   
     3     1    38 1   
     4     1    41 1   
     5     2    46 1   
     6     2    47 1   
     7     2    48 1   
     8     3    39 1   
     9     3    40 1   
    10     4    78 2   
    11     5    12 1   
    12     5    28 1   
    13     5    29 1   
    14     6    43 2   
    15     6    44 1   
    16     6    81 1   
    17     7     8 1   
    18     7     9 1   
    19     7    34 1   
    20     7    49 1   
    21     8    50 1   
    22     8    82 2   
    23     9    10 1   
    24     9    33 1   
    25     9    51 1   
    26    10    11 2   
    27    10    52 1   
    28    11    53 1   
    29    11    54 1   
    30    12    23 1   
    31    12    24 2   
    32    13    23 1   
    33    13    25 1   
    34    13    28 2   
    35    14    15 1   
    36    14    27 1   
    37    14    83 2   
    38    15    16 2   
    39    15    80 1   
    40    16    26 1   
    41    16    55 1   
    42    17    19 1   
    43    17    22 1   
    44    17    58 1   
    45    17    59 1   
    46    18    19 2   
    47    19    20 2   
    48    19    21 1   
    49    21    60 1   
    50    21    61 1   
    51    21    62 1   
    52    22    63 1   
    53    22    64 1   
    54    22    79 1   
    55    23    79 1   
    56    25    26 2   
    57    25    27 1   
    58    27    66 1   
    59    27    67 1   
    60    29    30 2   
    61    29    31 2   
    62    29    32 1   
    63    32    68 1   
    64    32    78 1   
    65    33    69 1   
    66    33    78 1   
    67    34    70 1   
    68    34    77 1   
    69    35    77 2   
    70    36    37 2   
    71    36    42 1   
    72    36    77 1   
    73    37    38 1   
    74    41    71 1   
    75    41    72 1   
    76    41    73 1   
    77    42    43 1   
    78    42    45 2   
    79    44    45 1   
    80    45    76 1   
    81    56    79 1   
    82    57    79 1   
    83    65    80 1   
    84    74    81 1   
    85    75    81 1   
@<TRIPOS>SUBSTRUCTURE
     1 3LC         1 TEMP              0 ****  ****    0 ROOT
