@<TRIPOS>MOLECULE
3LD
   28    29     1     0     0
SMALL
No Charge or Current Charge


@<TRIPOS>ATOM
      1 C4           3.3480     1.2180     0.2180 ca         1 3LD      -0.105000
      2 C5           3.4390    -1.2120     0.1530 ca         1 3LD      -0.105000
      3 C6           2.6970    -0.0270     0.3240 ca         1 3LD      -0.090300
      4 C7          -1.9090     1.0450    -0.3110 cc         1 3LD      -0.417200
      5 C8          -1.1240    -0.0800    -0.4040 cd         1 3LD       0.153800
      6 C10         -3.8420    -0.3900     0.1090 cc         1 3LD       0.503600
      7 C1           5.4610     0.0920    -0.2230 ca         1 3LD      -0.106000
      8 C2           4.7260     1.2770    -0.0540 ca         1 3LD      -0.106500
      9 C3           4.8170    -1.1530    -0.1200 ca         1 3LD      -0.106500
     10 C9          -3.3340     1.0050    -0.0460 c          1 3LD       0.485000
     11 C11          1.2030    -0.0890     0.6140 c3         1 3LD      -0.027100
     12 C12          0.3590    -0.0360    -0.6770 c3         1 3LD      -0.055200
     13 N13         -3.1340    -1.5140     0.0270 nd         1 3LD      -0.522400
     14 N14         -1.7530    -1.3410    -0.2340 na         1 3LD      -0.437300
     15 O15         -4.0020     2.0360     0.0320 o          1 3LD      -0.528100
     16 O16         -5.1590    -0.5190     0.3570 oh         1 3LD      -0.569600
     17 H1           2.7860     2.1410     0.3450 ha         1 3LD       0.110500
     18 H2           2.9480    -2.1800     0.2280 ha         1 3LD       0.110500
     19 H4           6.5270     0.1370    -0.4340 ha         1 3LD       0.115000
     20 H5           5.2230     2.2410    -0.1350 ha         1 3LD       0.114500
     21 H6           5.3850    -2.0710    -0.2520 ha         1 3LD       0.114500
     22 H7           0.9630    -1.0060     1.1660 hc         1 3LD       0.054700
     23 H8           0.9110     0.7430     1.2670 hc         1 3LD       0.054700
     24 H9           0.6480    -0.8670    -1.3310 hc         1 3LD       0.068200
     25 H10          0.6080     0.8800    -1.2260 hc         1 3LD       0.068200
     26 H11         -1.1840    -2.1950    -0.3030 hn         1 3LD       0.533000
     27 H12         -5.2730    -1.4880     0.4200 ho         1 3LD       0.473000
     28 H3          -1.4890     2.0370    -0.4300 ha         1 3LD       0.215000
@<TRIPOS>BOND
     1     1     3 ar  
     2     1     8 ar  
     3     1    17 1   
     4     2     3 ar  
     5     2     9 ar  
     6     2    18 1   
     7     3    11 1   
     8     4     5 2   
     9     4    10 1   
    10     4    28 1   
    11     5    12 1   
    12     5    14 1   
    13     6    10 1   
    14     6    13 2   
    15     6    16 1   
    16     7     8 ar  
    17     7     9 ar  
    18     7    19 1   
    19     8    20 1   
    20     9    21 1   
    21    10    15 2   
    22    11    12 1   
    23    11    22 1   
    24    11    23 1   
    25    12    24 1   
    26    12    25 1   
    27    13    14 1   
    28    14    26 1   
    29    16    27 1   
@<TRIPOS>SUBSTRUCTURE
     1 3LD         1 TEMP              0 ****  ****    0 ROOT
