@<TRIPOS>MOLECULE
3LD
   28    29     1     0     0
SMALL
abcg2


@<TRIPOS>ATOM
      1 C4           3.2710     1.1620     0.2260 ca         1 3LD      -0.105000
      2 C5           3.4190    -1.2280     0.1750 ca         1 3LD      -0.105000
      3 C6           2.6500    -0.0800     0.3460 ca         1 3LD      -0.090300
      4 C7          -1.8800     1.0920    -0.3760 cc         1 3LD      -0.417200
      5 C8          -1.1060    -0.0370    -0.4410 cd         1 3LD       0.153800
      6 C10         -3.7150    -0.3780     0.1290 cc         1 3LD       0.503600
      7 C1           5.3840     0.1030    -0.2220 ca         1 3LD      -0.106000
      8 C2           4.6260     1.2550    -0.0560 ca         1 3LD      -0.106500
      9 C3           4.7770    -1.1400    -0.1050 ca         1 3LD      -0.106500
     10 C9          -3.2710     1.0120    -0.0860 c          1 3LD       0.485000
     11 C11          1.1730    -0.1710     0.6090 c3         1 3LD      -0.027100
     12 C12          0.3680    -0.0170    -0.6920 c3         1 3LD      -0.055200
     13 N13         -2.9580    -1.4150     0.0570 nd         1 3LD      -0.522400
     14 N14         -1.6720    -1.2280    -0.2250 na         1 3LD      -0.437300
     15 O15         -4.0590     1.9540    -0.0110 o          1 3LD      -0.528100
     16 O16         -5.0040    -0.5280     0.4130 oh         1 3LD      -0.569600
     17 H1           2.6870     2.0660     0.3610 ha         1 3LD       0.110500
     18 H2           2.9520    -2.2020     0.2700 ha         1 3LD       0.110500
     19 H4           6.4430     0.1740    -0.4360 ha         1 3LD       0.115000
     20 H5           5.0920     2.2280    -0.1430 ha         1 3LD       0.114500
     21 H6           5.3600    -2.0430    -0.2310 ha         1 3LD       0.114500
     22 H7           0.9370    -1.1300     1.0750 hc         1 3LD       0.054700
     23 H8           0.8680     0.6080     1.3110 hc         1 3LD       0.054700
     24 H9           0.6390    -0.8120    -1.3920 hc         1 3LD       0.068200
     25 H10          0.6250     0.9280    -1.1710 hc         1 3LD       0.068200
     26 H11         -1.1330    -2.0790    -0.2890 hn         1 3LD       0.533000
     27 H12         -5.2040    -1.4660     0.5380 ho         1 3LD       0.473000
     28 H3          -1.4240     2.0570    -0.5540 ha         1 3LD       0.215000
@<TRIPOS>BOND
     1     1     3 ar  
     2     1     8 ar  
     3     1    17 1   
     4     2     3 ar  
     5     2     9 ar  
     6     2    18 1   
     7     3    11 1   
     8     4     5 2   
     9     4    10 1   
    10     4    28 1   
    11     5    12 1   
    12     5    14 1   
    13     6    10 1   
    14     6    13 2   
    15     6    16 1   
    16     7     8 ar  
    17     7     9 ar  
    18     7    19 1   
    19     8    20 1   
    20     9    21 1   
    21    10    15 2   
    22    11    12 1   
    23    11    22 1   
    24    11    23 1   
    25    12    24 1   
    26    12    25 1   
    27    13    14 1   
    28    14    26 1   
    29    16    27 1   
@<TRIPOS>SUBSTRUCTURE
     1 3LD         1 TEMP              0 ****  ****    0 ROOT
