@<TRIPOS>MOLECULE
3LE
   82    84     1     0     0
SMALL
No Charge or Current Charge


@<TRIPOS>ATOM
      1 C1          -1.0420     2.2850    -2.2000 c3         1 3LE       0.107700
      2 C2          -1.4430     0.8470    -1.7540 c3         1 3LE      -0.016300
      3 C3          -0.3270     0.1740    -0.9170 c          1 3LE       0.585900
      4 O4          -5.4930    -1.6460     3.6750 o          1 3LE      -0.713500
      5 O5           1.5810     2.7590    -1.1170 o          1 3LE      -0.602100
      6 N6           4.3680     1.3390    -1.5690 n          1 3LE      -0.237200
      7 C7          -5.6920     1.8080     3.2960 c3         1 3LE      -0.088600
      8 C8          -3.2740     0.9490     3.0170 c3         1 3LE      -0.088600
      9 C9          -5.0680    -0.5590     4.0520 c          1 3LE       0.734000
     10 C10         -6.5290     0.2440    -0.9590 cc         1 3LE       0.323700
     11 C11         -7.6440     0.4670    -0.1700 cd         1 3LE      -0.240000
     12 C12         -8.0910    -0.5930    -2.2610 cd         1 3LE       0.685300
     13 C14          3.9790     0.0440    -1.7840 c          1 3LE       0.573000
     14 C15          4.9090     0.3650     0.2520 cc         1 3LE       0.353600
     15 C16          5.4070     0.0460     1.6260 ce         1 3LE       0.411000
     16 C19          7.2340    -0.6010     3.7010 ce         1 3LE       0.003900
     17 C20          6.2710    -1.4640     3.2780 cf         1 3LE      -0.080400
     18 C22          2.7940    -2.3210     0.3770 c3         1 3LE      -0.075400
     19 C24          1.0370    -5.9940     1.6520 c3         1 3LE      -0.334100
     20 O12         -0.0810    -3.8570     0.5870 o          1 3LE      -0.505000
     21 S2           1.0270    -4.2150     1.4800 s6         1 3LE       1.099000
     22 O11          1.0920    -3.6330     2.8250 o          1 3LE      -0.505000
     23 C23          2.5790    -3.8380     0.6260 c3         1 3LE      -0.323400
     24 N7           4.3250    -0.5790    -0.6070 n          1 3LE      -0.304300
     25 O8           3.4390    -0.4490    -2.7640 o          1 3LE      -0.532000
     26 N9           5.3630    -1.1190     2.2510 nf         1 3LE      -0.540300
     27 O10          8.2050    -0.9610     4.5990 oh         1 3LE      -0.491100
     28 C18          7.2760     0.7890     3.1220 c          1 3LE       0.580300
     29 O9           8.2800     1.4940     3.0990 o          1 3LE      -0.483100
     30 C17          5.9850     1.2110     2.4380 c6         1 3LE      -0.265700
     31 N8           4.9540     1.5800    -0.3140 nd         1 3LE      -0.435300
     32 S1           4.0980     2.5820    -2.7990 s6         1 3LE       1.378600
     33 O6           4.3630     3.8810    -2.1650 o          1 3LE      -0.516000
     34 O7           4.8410     2.1690    -3.9950 o          1 3LE      -0.516000
     35 N5           2.4770     2.4880    -3.1720 ns         1 3LE      -0.625300
     36 N4           0.2480     2.2960    -2.9000 ns         1 3LE      -0.500900
     37 C           -2.0990     2.9800    -3.0820 c3         1 3LE      -0.109100
     38 O           -0.4130    -0.0530     0.2860 o          1 3LE      -0.498100
     39 N           -2.7330     0.8070    -1.0150 ns         1 3LE      -0.482900
     40 C4          -3.9830     0.5530    -1.5690 c          1 3LE       0.548800
     41 O1          -4.0790     0.3170    -2.7690 o          1 3LE      -0.581100
     42 C5          -5.1370     0.5890    -0.5740 ce         1 3LE       0.219300
     43 N1          -4.8910     1.0440     0.6230 n2         1 3LE      -0.263700
     44 O2          -5.1130     0.0890     1.6470 os         1 3LE      -0.250000
     45 C6          -4.7880     0.5760     2.9880 c3         1 3LE       0.032000
     46 O3          -4.8560    -0.3170     5.2350 o          1 3LE      -0.713500
     47 N2          -6.8100    -0.3830    -2.1590 nc         1 3LE      -0.719000
     48 N3          -8.5140    -1.2070    -3.3700 nv         1 3LE      -1.041900
     49 S           -9.1180    -0.0950    -0.9380 ss         1 3LE      -0.137400
     50 H1          -0.9390     2.8940    -1.2910 h1         1 3LE       0.079700
     51 H2          -1.5360     0.2300    -2.6570 h1         1 3LE       0.104700
     52 H3           0.5830    -0.1210    -1.4860 h4         1 3LE      -0.015800
     53 H4          -6.7510     1.5420     3.1960 hc         1 3LE       0.031867
     54 H5          -5.5290     2.1600     4.3210 hc         1 3LE       0.031867
     55 H6          -5.4800     2.6500     2.6270 hc         1 3LE       0.031867
     56 H7          -2.9660     1.2330     4.0300 hc         1 3LE       0.031867
     57 H8          -2.6610     0.0950     2.7050 hc         1 3LE       0.031867
     58 H9          -3.0480     1.7980     2.3610 hc         1 3LE       0.031867
     59 H10         -7.6750     0.9250     0.8110 h4         1 3LE       0.177000
     60 H11          6.2010    -2.4920     3.6670 h4         1 3LE       0.212000
     61 H12          4.9560    -2.4550     0.1450 h1         1 3LE       0.074200
     62 H13          4.0590    -2.5300    -1.3620 h1         1 3LE       0.074200
     63 H14          2.8030    -1.7880     1.3360 hc         1 3LE       0.073200
     64 H15          1.9510    -1.9210    -0.2010 hc         1 3LE       0.073200
     65 H16          1.0830    -6.4240     0.6460 h1         1 3LE       0.117033
     66 H17          1.9190    -6.2650     2.2420 h1         1 3LE       0.117033
     67 H18          0.1130    -6.2790     2.1650 h1         1 3LE       0.117033
     68 H19          2.5500    -4.3850    -0.3230 h1         1 3LE       0.085200
     69 H20          3.3840    -4.2420     1.2520 h1         1 3LE       0.085200
     70 H21          8.0420    -1.8960     4.8540 ho         1 3LE       0.468000
     71 H22          6.1380     2.1410     1.8810 hc         1 3LE       0.120700
     72 H23          5.2570     1.3830     3.2390 hc         1 3LE       0.120700
     73 H24          2.3310     2.2370    -4.1330 hn         1 3LE       0.352500
     74 H25          0.2500     2.1440    -3.9010 hn         1 3LE       0.322500
     75 H26         -3.0410     3.1110    -2.5370 hc         1 3LE       0.053367
     76 H27         -1.7520     3.9760    -3.3840 hc         1 3LE       0.053367
     77 H28         -2.3000     2.3960    -3.9870 hc         1 3LE       0.053367
     78 H29         -2.7200     0.9600    -0.0100 hn         1 3LE       0.335500
     79 H31         -7.7870    -1.6570    -3.9120 hn         1 3LE       0.469000
     80 H32         -9.4100    -1.6780    -3.3290 hn         1 3LE       0.469000
     81 C13          1.4550     2.5440    -2.3060 c          1 3LE       0.669100
     82 C21          4.1010    -2.0240    -0.3880 c3         1 3LE       0.131000
@<TRIPOS>BOND
     1     1     2 1   
     2     1    36 1   
     3     1    37 1   
     4     1    50 1   
     5     2     3 1   
     6     2    39 1   
     7     2    51 1   
     8     3    38 2   
     9     3    52 1   
    10     4     9 1   
    11     5    81 2   
    12     6    13 1   
    13     6    31 1   
    14     6    32 1   
    15     7    45 1   
    16     7    53 1   
    17     7    54 1   
    18     7    55 1   
    19     8    45 1   
    20     8    56 1   
    21     8    57 1   
    22     8    58 1   
    23     9    45 1   
    24     9    46 1   
    25    10    11 2   
    26    10    42 1   
    27    10    47 1   
    28    11    49 1   
    29    11    59 1   
    30    12    47 2   
    31    12    48 1   
    32    12    49 1   
    33    13    24 1   
    34    13    25 2   
    35    14    15 1   
    36    14    24 1   
    37    14    31 2   
    38    15    26 2   
    39    15    30 1   
    40    16    17 2   
    41    16    27 1   
    42    16    28 1   
    43    17    26 1   
    44    17    60 1   
    45    18    23 1   
    46    18    63 1   
    47    18    64 1   
    48    18    82 1   
    49    19    21 1   
    50    19    65 1   
    51    19    66 1   
    52    19    67 1   
    53    20    21 2   
    54    21    22 2   
    55    21    23 1   
    56    23    68 1   
    57    23    69 1   
    58    24    82 1   
    59    27    70 1   
    60    28    29 2   
    61    28    30 1   
    62    30    71 1   
    63    30    72 1   
    64    32    33 2   
    65    32    34 2   
    66    32    35 1   
    67    35    73 1   
    68    35    81 1   
    69    36    74 1   
    70    36    81 1   
    71    37    75 1   
    72    37    76 1   
    73    37    77 1   
    74    39    40 1   
    75    39    78 1   
    76    40    41 2   
    77    40    42 1   
    78    42    43 2   
    79    43    44 1   
    80    44    45 1   
    81    48    79 1   
    82    48    80 1   
    83    61    82 1   
    84    62    82 1   
@<TRIPOS>SUBSTRUCTURE
     1 3LE         1 TEMP              0 ****  ****    0 ROOT
