@<TRIPOS>MOLECULE
3LE
   82    84     1     0     0
SMALL
abcg2


@<TRIPOS>ATOM
      1 C1          -1.1770     1.4660    -2.4570 c3         1 3LE       0.107700
      2 C2          -1.4820     0.2910    -1.4870 c3         1 3LE      -0.016300
      3 C3          -0.2780     0.0280    -0.6060 c          1 3LE       0.585900
      4 O4          -3.8450    -4.0350     1.0450 o          1 3LE      -0.713500
      5 O5           1.5450     2.0950    -1.9150 o          1 3LE      -0.602100
      6 N6           4.1820     0.7770    -2.3220 n          1 3LE      -0.237200
      7 C7          -5.2680    -2.2010     3.2770 c3         1 3LE      -0.088600
      8 C8          -2.9370    -1.2660     3.1420 c3         1 3LE      -0.088600
      9 C9          -3.5110    -3.5370     2.1280 c          1 3LE       0.734000
     10 C10         -5.6100     1.6050     0.0670 cc         1 3LE       0.323700
     11 C11         -6.6560     1.9870     0.8440 cd         1 3LE      -0.240000
     12 C12         -6.0470     3.4980    -0.9640 cd         1 3LE       0.685300
     13 C14          3.9430    -0.5700    -2.1070 c          1 3LE       0.573000
     14 C15          4.5930     0.5180    -0.2860 cc         1 3LE       0.353600
     15 C16          4.9650     0.8500     1.0870 ce         1 3LE       0.411000
     16 C19          5.6520     1.4260     3.7260 ce         1 3LE       0.003900
     17 C20          5.2460     0.2170     3.2830 cf         1 3LE      -0.080400
     18 C22          2.5920    -2.0080     0.4460 c3         1 3LE      -0.075400
     19 C24          0.2040    -4.9100     2.2530 c3         1 3LE      -0.334100
     20 O12         -0.3130    -3.0250     0.4840 o          1 3LE      -0.505000
     21 S2           0.5340    -3.2740     1.6510 s6         1 3LE       1.099000
     22 O11          0.4800    -2.3370     2.7730 o          1 3LE      -0.505000
     23 C23          2.2410    -3.3410     1.0850 c3         1 3LE      -0.323400
     24 N7           4.2530    -0.7200    -0.7780 n          1 3LE      -0.304300
     25 O8           3.5440    -1.3910    -2.8980 o          1 3LE      -0.532000
     26 N9           4.9130    -0.0640     1.9740 nf         1 3LE      -0.540300
     27 O10          5.9900     1.7270     4.9780 oh         1 3LE      -0.491100
     28 C18          5.7570     2.5510     2.7810 c          1 3LE       0.580300
     29 O9           6.1360     3.6440     3.1340 o          1 3LE      -0.483100
     30 C17          5.3590     2.2630     1.3590 c6         1 3LE      -0.265700
     31 N8           4.5570     1.4300    -1.1980 nd         1 3LE      -0.435300
     32 S1           3.7730     1.6130    -3.7350 s6         1 3LE       1.378600
     33 O6           3.9780     2.9970    -3.4250 o          1 3LE      -0.516000
     34 O7           4.4410     0.9680    -4.8330 o          1 3LE      -0.516000
     35 N5           2.1810     1.2570    -3.9290 ns         1 3LE      -0.625300
     36 N4          -0.0180     1.1690    -3.2810 ns         1 3LE      -0.500900
     37 C           -2.3600     1.7830    -3.3560 c3         1 3LE      -0.109100
     38 O           -0.2160     0.3470     0.5500 o          1 3LE      -0.498100
     39 N           -2.6270     0.5620    -0.6650 ns         1 3LE      -0.482900
     40 C4          -3.8450     0.0440    -0.8810 c          1 3LE       0.548800
     41 O1          -4.1650    -0.6190    -1.8490 o          1 3LE      -0.581100
     42 C5          -4.8250     0.3840     0.2170 ce         1 3LE       0.219300
     43 N1          -4.9870    -0.3620     1.2350 n2         1 3LE      -0.263700
     44 O2          -4.2640    -1.4990     1.1510 os         1 3LE      -0.250000
     45 C6          -3.9990    -2.0940     2.4350 c3         1 3LE       0.032000
     46 O3          -2.8840    -4.0870     3.0570 o          1 3LE      -0.713500
     47 N2          -5.2740     2.4580    -0.9530 nc         1 3LE      -0.719000
     48 N3          -5.9200     4.5390    -1.8190 nv         1 3LE      -1.041900
     49 S           -7.2570     3.5050     0.2920 ss         1 3LE      -0.137400
     50 H1          -0.9470     2.3490    -1.8570 h1         1 3LE       0.079700
     51 H2          -1.6640    -0.6060    -2.0850 h1         1 3LE       0.104700
     52 H3           0.5560    -0.4790    -1.1120 h4         1 3LE      -0.015800
     53 H4          -6.0580    -2.7310     2.7420 hc         1 3LE       0.031867
     54 H5          -5.0410    -2.7610     4.1840 hc         1 3LE       0.031867
     55 H6          -5.6490    -1.2240     3.5730 hc         1 3LE       0.031867
     56 H7          -2.6670    -1.7270     4.0890 hc         1 3LE       0.031867
     57 H8          -2.0330    -1.1890     2.5390 hc         1 3LE       0.031867
     58 H9          -3.3070    -0.2590     3.3510 hc         1 3LE       0.031867
     59 H10         -7.1030     1.4700     1.6770 h4         1 3LE       0.177000
     60 H11          5.1630    -0.6220     3.9640 h4         1 3LE       0.212000
     61 H12          4.7500    -2.0990     0.6960 h1         1 3LE       0.074200
     62 H13          4.1680    -2.7740    -0.8220 h1         1 3LE       0.074200
     63 H14          2.4570    -1.1990     1.1660 hc         1 3LE       0.073200
     64 H15          1.9090    -1.8350    -0.3860 hc         1 3LE       0.073200
     65 H16          0.3250    -5.6250     1.4420 h1         1 3LE       0.117033
     66 H17          0.8840    -5.1410     3.0700 h1         1 3LE       0.117033
     67 H18         -0.8310    -4.9020     2.6020 h1         1 3LE       0.117033
     68 H19          2.3200    -4.1620     0.3700 h1         1 3LE       0.085200
     69 H20          2.8640    -3.5670     1.9510 h1         1 3LE       0.085200
     70 H21          5.9090     0.9550     5.5520 ho         1 3LE       0.468000
     71 H22          6.1770     2.5660     0.6990 hc         1 3LE       0.120700
     72 H23          4.5280     2.9300     1.1020 hc         1 3LE       0.120700
     73 H24          1.9630     0.6770    -4.7320 hn         1 3LE       0.352500
     74 H25         -0.1860     0.7260    -4.1730 hn         1 3LE       0.322500
     75 H26         -3.2250     2.0860    -2.7680 hc         1 3LE       0.053367
     76 H27         -2.1050     2.6070    -4.0230 hc         1 3LE       0.053367
     77 H28         -2.6430     0.9210    -3.9620 hc         1 3LE       0.053367
     78 H29         -2.4610     1.0540     0.2010 hn         1 3LE       0.335500
     79 H31         -5.3680     4.3570    -2.6420 hn         1 3LE       0.469000
     80 H32         -6.7250     5.1190    -1.9900 hn         1 3LE       0.469000
     81 C13          1.2230     1.5560    -2.9550 c          1 3LE       0.669100
     82 C21          4.0140    -1.9810    -0.0910 c3         1 3LE       0.131000
@<TRIPOS>BOND
     1     1     2 1   
     2     1    36 1   
     3     1    37 1   
     4     1    50 1   
     5     2     3 1   
     6     2    39 1   
     7     2    51 1   
     8     3    38 2   
     9     3    52 1   
    10     4     9 1   
    11     5    81 2   
    12     6    13 1   
    13     6    31 1   
    14     6    32 1   
    15     7    45 1   
    16     7    53 1   
    17     7    54 1   
    18     7    55 1   
    19     8    45 1   
    20     8    56 1   
    21     8    57 1   
    22     8    58 1   
    23     9    45 1   
    24     9    46 1   
    25    10    11 2   
    26    10    42 1   
    27    10    47 1   
    28    11    49 1   
    29    11    59 1   
    30    12    47 2   
    31    12    48 1   
    32    12    49 1   
    33    13    24 1   
    34    13    25 2   
    35    14    15 1   
    36    14    24 1   
    37    14    31 2   
    38    15    26 2   
    39    15    30 1   
    40    16    17 2   
    41    16    27 1   
    42    16    28 1   
    43    17    26 1   
    44    17    60 1   
    45    18    23 1   
    46    18    63 1   
    47    18    64 1   
    48    18    82 1   
    49    19    21 1   
    50    19    65 1   
    51    19    66 1   
    52    19    67 1   
    53    20    21 2   
    54    21    22 2   
    55    21    23 1   
    56    23    68 1   
    57    23    69 1   
    58    24    82 1   
    59    27    70 1   
    60    28    29 2   
    61    28    30 1   
    62    30    71 1   
    63    30    72 1   
    64    32    33 2   
    65    32    34 2   
    66    32    35 1   
    67    35    73 1   
    68    35    81 1   
    69    36    74 1   
    70    36    81 1   
    71    37    75 1   
    72    37    76 1   
    73    37    77 1   
    74    39    40 1   
    75    39    78 1   
    76    40    41 2   
    77    40    42 1   
    78    42    43 2   
    79    43    44 1   
    80    44    45 1   
    81    48    79 1   
    82    48    80 1   
    83    61    82 1   
    84    62    82 1   
@<TRIPOS>SUBSTRUCTURE
     1 3LE         1 TEMP              0 ****  ****    0 ROOT
