@<TRIPOS>MOLECULE
3LF
   32    32     1     0     0
SMALL
bcc


@<TRIPOS>ATOM
      1 C            4.4820    -0.1480     0.1870 c          1 3LF       0.927600
      2 O            5.1900    -0.3300     1.2000 o          1 3LF      -0.843800
      3 C1           2.9620    -0.1360     0.4280 c3         1 3LF      -0.203400
      4 C2           2.1030     0.0660    -0.8180 c3         1 3LF      -0.027100
      5 C3           0.6340     0.0600    -0.4910 ca         1 3LF       0.023700
      6 C4          -0.0550     1.2570    -0.3390 ca         1 3LF      -0.247000
      7 O4           4.8890     0.0240    -0.9790 o          1 3LF      -0.843800
      8 C5          -1.4040     1.2520     0.0120 ca         1 3LF       0.148600
      9 C6          -1.5360     3.6180    -0.0030 c3         1 3LF       0.126200
     10 C7          -2.0660     0.0400     0.2250 ca         1 3LF      -0.004900
     11 C8          -4.2950     0.0040    -0.4770 c3         1 3LF       0.127700
     12 C9          -1.3730    -1.1630     0.0610 ca         1 3LF       0.148600
     13 C10         -1.4450    -3.5290     0.1550 c3         1 3LF       0.126200
     14 C11         -0.0260    -1.1490    -0.2920 ca         1 3LF      -0.247000
     15 H1           2.6820    -1.0750     0.9170 hc         1 3LF       0.022700
     16 H2           2.7340     0.6460     1.1600 hc         1 3LF       0.022700
     17 H4           2.3690     1.0100    -1.2950 hc         1 3LF       0.052700
     18 H3           2.3210    -0.7210    -1.5430 hc         1 3LF       0.052700
     19 H5           0.4710     2.1880    -0.5040 ha         1 3LF       0.141500
     20 H7          -1.1570     3.7470    -1.0200 h1         1 3LF       0.036367
     21 H8          -2.3050     4.3650     0.1790 h1         1 3LF       0.036367
     22 H6          -0.7170     3.7800     0.7010 h1         1 3LF       0.036367
     23 H11         -5.2960     0.0000    -0.0470 h1         1 3LF       0.023700
     24 H10         -4.1960     0.8830    -1.1180 h1         1 3LF       0.023700
     25 H9          -4.1770    -0.8930    -1.0910 h1         1 3LF       0.023700
     26 H12         -1.0620    -3.6980    -0.8550 h1         1 3LF       0.036367
     27 H13         -0.6200    -3.6350     0.8650 h1         1 3LF       0.036367
     28 H14         -2.1940    -4.2860     0.3750 h1         1 3LF       0.036367
     29 H15          0.5240    -2.0730    -0.4200 ha         1 3LF       0.141500
     30 O3          -2.0920    -2.2790     0.2760 os         1 3LF      -0.313900
     31 O1          -2.1510     2.3590     0.1790 os         1 3LF      -0.313900
     32 O2          -3.3740     0.0300     0.6030 os         1 3LF      -0.307900
@<TRIPOS>BOND
     1     1     2 1   
     2     1     3 1   
     3     1     7 1   
     4     3     4 1   
     5     3    15 1   
     6     3    16 1   
     7     4     5 1   
     8     4    17 1   
     9     4    18 1   
    10     5     6 ar  
    11     5    14 ar  
    12     6     8 ar  
    13     6    19 1   
    14     8    10 ar  
    15     8    31 1   
    16     9    20 1   
    17     9    21 1   
    18     9    22 1   
    19     9    31 1   
    20    10    12 ar  
    21    10    32 1   
    22    11    23 1   
    23    11    24 1   
    24    11    25 1   
    25    11    32 1   
    26    12    14 ar  
    27    12    30 1   
    28    13    26 1   
    29    13    27 1   
    30    13    28 1   
    31    13    30 1   
    32    14    29 1   
@<TRIPOS>SUBSTRUCTURE
     1 3LF         1 TEMP              0 ****  ****    0 ROOT
