@<TRIPOS>MOLECULE
3LF
   32    32     1     0     0
SMALL
No Charge or Current Charge


@<TRIPOS>ATOM
      1 C            4.4680     0.1680     0.3900 c          1 3LF       0.717000
      2 O            5.0870    -0.8850     0.4140 o          1 3LF      -0.738500
      3 C1           2.9540     0.1260     0.6470 c3         1 3LF      -0.203400
      4 C2           2.1970    -0.0960    -0.6840 c3         1 3LF      -0.027100
      5 C3           0.6860    -0.1470    -0.4890 ca         1 3LF       0.023700
      6 C4          -0.0730     1.0310    -0.5430 ca         1 3LF      -0.229000
      7 O4           4.9770     1.2450     0.1200 o          1 3LF      -0.738500
      8 C5          -1.4760     1.0070    -0.3620 ca         1 3LF       0.148600
      9 C6          -1.6010     3.4720    -0.6590 c3         1 3LF       0.149400
     10 C7          -2.1280    -0.2420    -0.1180 ca         1 3LF      -0.004900
     11 C8          -4.4670     0.6720     0.0590 c3         1 3LF       0.150900
     12 C9          -1.3500    -1.4250    -0.0630 ca         1 3LF       0.148600
     13 C10         -1.3020    -3.8830     0.2530 c3         1 3LF       0.149400
     14 C11          0.0470    -1.3700    -0.2480 ca         1 3LF      -0.229000
     15 H1           2.6950    -0.7280     1.2850 hc         1 3LF       0.022700
     16 H2           2.6020     1.0900     1.0350 hc         1 3LF       0.022700
     17 H4           2.4570     0.7060    -1.3860 hc         1 3LF       0.052700
     18 H3           2.5470    -1.0270    -1.1470 hc         1 3LF       0.052700
     19 H5           0.4520     1.9630    -0.7270 ha         1 3LF       0.123500
     20 H7          -1.0950     3.4910    -1.6320 h1         1 3LF       0.036367
     21 H8          -2.3700     4.2540    -0.6610 h1         1 3LF       0.036367
     22 H6          -0.8730     3.7140     0.1250 h1         1 3LF       0.036367
     23 H11         -5.4730     0.2720     0.2380 h1         1 3LF       0.023700
     24 H10         -4.2540     1.4050     0.8470 h1         1 3LF       0.023700
     25 H9          -4.4760     1.1770    -0.9150 h1         1 3LF       0.023700
     26 H12         -0.7860    -4.1020    -0.6900 h1         1 3LF       0.036367
     27 H13         -0.5640    -3.8710     1.0660 h1         1 3LF       0.036367
     28 H14         -2.0100    -4.6980     0.4490 h1         1 3LF       0.036367
     29 H15          0.6530    -2.2700    -0.2050 ha         1 3LF       0.123500
     30 O3          -1.9990    -2.6270     0.1760 os         1 3LF      -0.337100
     31 O1          -2.2020     2.1860    -0.4200 os         1 3LF      -0.337100
     32 O2          -3.5030    -0.3960     0.0760 os         1 3LF      -0.331100
@<TRIPOS>BOND
     1     1     2 1   
     2     1     3 1   
     3     1     7 1   
     4     3     4 1   
     5     3    15 1   
     6     3    16 1   
     7     4     5 1   
     8     4    17 1   
     9     4    18 1   
    10     5     6 ar  
    11     5    14 ar  
    12     6     8 ar  
    13     6    19 1   
    14     8    10 ar  
    15     8    31 1   
    16     9    20 1   
    17     9    21 1   
    18     9    22 1   
    19     9    31 1   
    20    10    12 ar  
    21    10    32 1   
    22    11    23 1   
    23    11    24 1   
    24    11    25 1   
    25    11    32 1   
    26    12    14 ar  
    27    12    30 1   
    28    13    26 1   
    29    13    27 1   
    30    13    28 1   
    31    13    30 1   
    32    14    29 1   
@<TRIPOS>SUBSTRUCTURE
     1 3LF         1 TEMP              0 ****  ****    0 ROOT
