@<TRIPOS>MOLECULE
3LG
   76    80     1     0     0
SMALL
bcc


@<TRIPOS>ATOM
      1 C1          18.1550    42.9680   127.7000 c3         1 3LG       0.117700
      2 O1          18.0940    44.3080   128.1420 os         1 3LG      -0.336900
      3 C2          19.1520    45.1100   127.9250 ca         1 3LG       0.160100
      4 C3          19.1090    46.3770   128.5260 ca         1 3LG      -0.178300
      5 C4          17.9760    46.7940   129.4310 c3         1 3LG       0.194700
      6 O2          18.3110    46.7250   130.8050 os         1 3LG      -0.420600
      7 C5          20.2520    44.7380   127.1520 ca         1 3LG      -0.206000
      8 C6          21.3010    45.6290   126.9680 ca         1 3LG      -0.076000
      9 C7          21.2700    46.8880   127.5480 ca         1 3LG      -0.183000
     10 C8          20.1760    47.2430   128.3240 ca         1 3LG      -0.082000
     11 C20         17.2030    37.3390   127.9530 c6         1 3LG       0.087700
     12 C21         17.1070    35.8600   127.5850 c6         1 3LG       0.133800
     13 N2          16.3720    35.0710   128.5430 n7         1 3LG      -0.785200
     14 C22         17.0140    35.1390   129.8320 c6         1 3LG       0.068800
     15 C23         17.4410    36.5160   130.3020 c          1 3LG       0.673500
     16 N3          17.5290    37.5040   129.3750 n          1 3LG      -0.399000
     17 C25         19.1320    39.1690   130.1670 ca         1 3LG      -0.075000
     18 C26         17.8250    38.8110   129.8650 ca         1 3LG       0.020600
     19 C27         16.8100    39.7270   130.0840 ca         1 3LG      -0.075000
     20 C28         17.0800    40.9790   130.6230 ca         1 3LG      -0.184000
     21 C29         18.3860    41.3160   130.9710 ca         1 3LG       0.149100
     22 C30         19.4130    40.4060   130.7170 ca         1 3LG      -0.184000
     23 O7          18.7530    42.4750   131.5550 os         1 3LG      -0.330900
     24 C31         17.8050    43.2690   132.2590 c3         1 3LG       0.147400
     25 C32         17.4280    44.5300   131.5020 c3         1 3LG      -0.136400
     26 C33         18.6320    45.4470   131.3080 c3         1 3LG       0.142400
     27 N1          21.5100    42.5370   124.2160 na         1 3LG       0.016600
     28 C9          20.5380    41.7230   124.7230 ca         1 3LG      -0.039200
     29 C10         21.0110    41.1790   125.9400 ca         1 3LG      -0.100800
     30 C11         22.3320    41.6870   126.1240 cc         1 3LG      -0.236200
     31 C12         22.5870    42.4960   125.0520 cd         1 3LG      -0.089100
     32 C13         19.2660    41.4310   124.2370 ca         1 3LG      -0.093000
     33 C14         18.4580    40.6090   124.9980 ca         1 3LG      -0.158000
     34 C15         18.9000    40.0960   126.2300 ca         1 3LG       0.037100
     35 C16         20.1710    40.3580   126.7010 ca         1 3LG      -0.117000
     36 C18         21.6750    42.3050   121.7210 c          1 3LG       0.920600
     37 O3          21.5220    42.8800   120.6260 o          1 3LG      -0.811800
     38 O4          21.9930    41.1260   121.9320 o          1 3LG      -0.811800
     39 H11A        18.2480    42.8990   126.6130 h1         1 3LG       0.051700
     40 H12A        18.9850    42.4260   128.1580 h1         1 3LG       0.051700
     41 H13A        17.2260    42.4950   128.0070 h1         1 3LG       0.051700
     42 H41         17.7430    47.8440   129.2480 h1         1 3LG       0.048200
     43 H42         17.0680    46.2270   129.2100 h1         1 3LG       0.048200
     44 H5          20.3070    43.7610   126.6920 ha         1 3LG       0.164000
     45 H6          22.1470    45.3250   126.3640 ha         1 3LG       0.135000
     46 H7          22.0860    47.5830   127.4010 ha         1 3LG       0.126000
     47 H8          20.1450    48.2240   128.7860 ha         1 3LG       0.123000
     48 H20         16.2290    37.8040   127.7580 h1         1 3LG       0.058700
     49 H211        16.6370    35.7850   126.6040 h1         1 3LG       0.067700
     50 H212        18.1130    35.4350   127.4880 h1         1 3LG       0.067700
     51 HN2         15.4210    35.4130   128.6130 hn         1 3LG       0.357800
     52 H221        16.3580    34.7220   130.5970 h1         1 3LG       0.078700
     53 H222        17.9130    34.5120   129.8250 h1         1 3LG       0.078700
     54 H241        18.1260    37.5560   126.0370 h1         1 3LG       0.038700
     55 H242        19.2410    37.7540   127.3930 h1         1 3LG       0.038700
     56 H25         19.9370    38.4650   129.9970 ha         1 3LG       0.132500
     57 H27         15.7870    39.4660   129.8430 ha         1 3LG       0.132500
     58 H28         16.2620    41.6730   130.7670 ha         1 3LG       0.139000
     59 H30         20.4320    40.6690   130.9720 ha         1 3LG       0.139000
     60 H311        16.9120    42.6910   132.5090 h1         1 3LG       0.044700
     61 H312        18.2830    43.5370   133.2050 h1         1 3LG       0.044700
     62 H321        16.6720    45.0500   132.0970 hc         1 3LG       0.056700
     63 H322        16.9650    44.2710   130.5470 hc         1 3LG       0.056700
     64 H331        19.3860    44.9550   130.6840 h1         1 3LG       0.051200
     65 H332        19.0970    45.6260   132.2820 h1         1 3LG       0.051200
     66 H11         23.0010    41.4930   126.9480 ha         1 3LG       0.139000
     67 H12         23.4730    43.0680   124.8210 h4         1 3LG       0.155000
     68 H13         18.9090    41.8330   123.2970 ha         1 3LG       0.149000
     69 H14         17.4570    40.3710   124.6600 ha         1 3LG       0.124000
     70 H16         20.4920    39.9730   127.6620 ha         1 3LG       0.126000
     71 H171        22.1960    44.0090   122.9510 h1         1 3LG       0.042700
     72 H172        20.4780    43.7170   122.8590 h1         1 3LG       0.042700
     73 O5          17.7080    36.7040   131.4790 o          1 3LG      -0.631500
     74 C24         18.2300    37.9900   127.0410 c3         1 3LG       0.132400
     75 O6          18.0080    39.3830   126.9830 os         1 3LG      -0.346900
     76 C17         21.4450    43.2160   122.9500 c3         1 3LG      -0.128700
@<TRIPOS>BOND
     1     1     2 1   
     2     1    39 1   
     3     1    40 1   
     4     1    41 1   
     5     2     3 1   
     6     3     4 ar  
     7     3     7 ar  
     8     4     5 1   
     9     4    10 ar  
    10     5     6 1   
    11     5    42 1   
    12     5    43 1   
    13     6    26 1   
    14     7     8 ar  
    15     7    44 1   
    16     8     9 ar  
    17     8    45 1   
    18     9    10 ar  
    19     9    46 1   
    20    10    47 1   
    21    11    12 1   
    22    11    16 1   
    23    11    48 1   
    24    11    74 1   
    25    12    13 1   
    26    12    49 1   
    27    12    50 1   
    28    13    14 1   
    29    13    51 1   
    30    14    15 1   
    31    14    52 1   
    32    14    53 1   
    33    15    16 1   
    34    15    73 2   
    35    16    18 1   
    36    17    18 ar  
    37    17    22 ar  
    38    17    56 1   
    39    18    19 ar  
    40    19    20 ar  
    41    19    57 1   
    42    20    21 ar  
    43    20    58 1   
    44    21    22 ar  
    45    21    23 1   
    46    22    59 1   
    47    23    24 1   
    48    24    25 1   
    49    24    60 1   
    50    24    61 1   
    51    25    26 1   
    52    25    62 1   
    53    25    63 1   
    54    26    64 1   
    55    26    65 1   
    56    27    28 1   
    57    27    31 1   
    58    27    76 1   
    59    28    29 ar  
    60    28    32 ar  
    61    29    30 1   
    62    29    35 ar  
    63    30    31 2   
    64    30    66 1   
    65    31    67 1   
    66    32    33 ar  
    67    32    68 1   
    68    33    34 ar  
    69    33    69 1   
    70    34    35 ar  
    71    34    75 1   
    72    35    70 1   
    73    36    37 1   
    74    36    38 1   
    75    36    76 1   
    76    54    74 1   
    77    55    74 1   
    78    71    76 1   
    79    72    76 1   
    80    74    75 1   
@<TRIPOS>SUBSTRUCTURE
     1 3LG         1 TEMP              0 ****  ****    0 ROOT
