@<TRIPOS>MOLECULE
3LG
   76    80     1     0     0
SMALL
No Charge or Current Charge


@<TRIPOS>ATOM
      1 C1          18.1020    43.0250   127.0340 c3         1 3LG       0.140900
      2 O1          18.4000    44.1140   127.9270 os         1 3LG      -0.360100
      3 C2          19.6750    44.3600   128.4020 ca         1 3LG       0.160100
      4 C3          19.8830    45.4700   129.2520 ca         1 3LG      -0.178300
      5 C4          18.7260    46.3850   129.6580 c3         1 3LG       0.217900
      6 O2          18.6700    46.5110   131.0980 os         1 3LG      -0.467000
      7 C5          20.7680    43.5370   128.0520 ca         1 3LG      -0.188000
      8 C6          22.0560    43.8180   128.5380 ca         1 3LG      -0.058000
      9 C7          22.2610    44.9240   129.3740 ca         1 3LG      -0.165000
     10 C8          21.1810    45.7480   129.7280 ca         1 3LG      -0.064000
     11 C20         17.7710    37.9060   128.2470 c6         1 3LG       0.087700
     12 C21         17.9620    36.5030   127.5910 c6         1 3LG       0.133800
     13 N2          17.2400    35.4350   128.3170 n7         1 3LG      -0.840400
     14 C22         17.7260    35.3570   129.7280 c6         1 3LG       0.068800
     15 C23         17.6700    36.7150   130.4880 c          1 3LG       0.531000
     16 N3          17.8980    37.9150   129.7490 n          1 3LG      -0.239400
     17 C25         18.6950    39.3960   131.5680 ca         1 3LG      -0.057000
     18 C26         17.9210    39.2060   130.4050 ca         1 3LG      -0.072000
     19 C27         16.9340    40.1720   130.0990 ca         1 3LG      -0.057000
     20 C28         16.8100    41.3480   130.8600 ca         1 3LG      -0.166000
     21 C29         17.6440    41.5580   131.9780 ca         1 3LG       0.149100
     22 C30         18.5800    40.5740   132.3250 ca         1 3LG      -0.166000
     23 O7          17.5420    42.6620   132.8030 os         1 3LG      -0.354100
     24 C31         16.5740    43.7140   132.6150 c3         1 3LG       0.170600
     25 C32         17.0750    44.6960   131.5330 c3         1 3LG      -0.136400
     26 C33         18.4600    45.3000   131.8630 c3         1 3LG       0.165600
     27 N1          20.8630    42.7260   122.8480 na         1 3LG      -0.012700
     28 C9          20.0970    41.8070   123.5560 ca         1 3LG      -0.039200
     29 C10         20.7360    41.4560   124.7130 ca         1 3LG      -0.100800
     30 C11         21.9730    42.1760   124.7570 cc         1 3LG      -0.286200
     31 C12         22.0330    42.9540   123.6060 cd         1 3LG      -0.139100
     32 C13         18.8470    41.2570   123.2250 ca         1 3LG      -0.075000
     33 C14         18.2640    40.3390   124.1250 ca         1 3LG      -0.140000
     34 C15         18.9210    39.9900   125.3280 ca         1 3LG       0.037100
     35 C16         20.1880    40.5500   125.6290 ca         1 3LG      -0.099000
     36 C18         20.7730    42.4700   120.3560 c          1 3LG       0.710000
     37 O3          19.8560    41.8380   119.8510 o          1 3LG      -0.706500
     38 O4          21.9170    42.4630   119.9240 o          1 3LG      -0.706500
     39 H11A        18.6720    43.1170   126.1010 h1         1 3LG       0.051700
     40 H12A        18.3420    42.0630   127.5020 h1         1 3LG       0.051700
     41 H13A        17.0350    43.0210   126.7810 h1         1 3LG       0.051700
     42 H41         18.8940    47.3720   129.2090 h1         1 3LG       0.048200
     43 H42         17.7700    46.0220   129.2630 h1         1 3LG       0.048200
     44 H5          20.6400    42.6790   127.4020 ha         1 3LG       0.146000
     45 H6          22.8930    43.1800   128.2630 ha         1 3LG       0.117000
     46 H7          23.2570    45.1450   129.7490 ha         1 3LG       0.108000
     47 H8          21.3500    46.6040   130.3780 ha         1 3LG       0.105000
     48 H20         16.7410    38.2130   128.0230 h1         1 3LG       0.058700
     49 H211        17.6180    36.5390   126.5460 h1         1 3LG       0.067700
     50 H212        19.0360    36.2590   127.5660 h1         1 3LG       0.067700
     51 HN2         16.2330    35.6570   128.3160 hn         1 3LG       0.413000
     52 H221        17.1340    34.6270   130.3000 h1         1 3LG       0.078700
     53 H222        18.7770    35.0330   129.7450 h1         1 3LG       0.078700
     54 H241        19.7380    38.5720   127.5990 h1         1 3LG       0.038700
     55 H242        18.6610    39.9030   128.0650 h1         1 3LG       0.038700
     56 H25         19.4030    38.6310   131.8800 ha         1 3LG       0.114500
     57 H27         16.2460    40.0130   129.2720 ha         1 3LG       0.114500
     58 H28         16.0460    42.0650   130.5810 ha         1 3LG       0.121000
     59 H30         19.2020    40.7120   133.2060 ha         1 3LG       0.121000
     60 H311        15.5870    43.3130   132.3520 h1         1 3LG       0.044700
     61 H312        16.4550    44.2710   133.5530 h1         1 3LG       0.044700
     62 H321        16.3400    45.5050   131.4430 hc         1 3LG       0.056700
     63 H322        17.1160    44.1880   130.5640 hc         1 3LG       0.056700
     64 H331        19.2470    44.5590   131.6710 h1         1 3LG       0.051200
     65 H332        18.4940    45.5420   132.9340 h1         1 3LG       0.051200
     66 H11         22.7310    42.1390   125.5360 ha         1 3LG       0.189000
     67 H12         22.8050    43.6420   123.2720 h4         1 3LG       0.205000
     68 H13         18.3370    41.5280   122.3040 ha         1 3LG       0.131000
     69 H14         17.2950    39.9040   123.8960 ha         1 3LG       0.106000
     70 H16         20.7330    40.3020   126.5350 ha         1 3LG       0.108000
     71 H171        21.0010    44.3000   121.4620 h1         1 3LG       0.042700
     72 H172        19.3900    43.5680   121.5980 h1         1 3LG       0.042700
     73 O5          17.4470    36.7270   131.6950 o          1 3LG      -0.556000
     74 C24         18.7050    38.9400   127.5450 c3         1 3LG       0.155600
     75 O6          18.2850    39.1110   126.1780 os         1 3LG      -0.370100
     76 C17         20.4640    43.3500   121.5760 c3         1 3LG      -0.099400
@<TRIPOS>BOND
     1     1     2 1   
     2     1    39 1   
     3     1    40 1   
     4     1    41 1   
     5     2     3 1   
     6     3     4 ar  
     7     3     7 ar  
     8     4     5 1   
     9     4    10 ar  
    10     5     6 1   
    11     5    42 1   
    12     5    43 1   
    13     6    26 1   
    14     7     8 ar  
    15     7    44 1   
    16     8     9 ar  
    17     8    45 1   
    18     9    10 ar  
    19     9    46 1   
    20    10    47 1   
    21    11    12 1   
    22    11    16 1   
    23    11    48 1   
    24    11    74 1   
    25    12    13 1   
    26    12    49 1   
    27    12    50 1   
    28    13    14 1   
    29    13    51 1   
    30    14    15 1   
    31    14    52 1   
    32    14    53 1   
    33    15    16 1   
    34    15    73 2   
    35    16    18 1   
    36    17    18 ar  
    37    17    22 ar  
    38    17    56 1   
    39    18    19 ar  
    40    19    20 ar  
    41    19    57 1   
    42    20    21 ar  
    43    20    58 1   
    44    21    22 ar  
    45    21    23 1   
    46    22    59 1   
    47    23    24 1   
    48    24    25 1   
    49    24    60 1   
    50    24    61 1   
    51    25    26 1   
    52    25    62 1   
    53    25    63 1   
    54    26    64 1   
    55    26    65 1   
    56    27    28 1   
    57    27    31 1   
    58    27    76 1   
    59    28    29 ar  
    60    28    32 ar  
    61    29    30 1   
    62    29    35 ar  
    63    30    31 2   
    64    30    66 1   
    65    31    67 1   
    66    32    33 ar  
    67    32    68 1   
    68    33    34 ar  
    69    33    69 1   
    70    34    35 ar  
    71    34    75 1   
    72    35    70 1   
    73    36    37 1   
    74    36    38 1   
    75    36    76 1   
    76    54    74 1   
    77    55    74 1   
    78    71    76 1   
    79    72    76 1   
    80    74    75 1   
@<TRIPOS>SUBSTRUCTURE
     1 3LG         1 TEMP              0 ****  ****    0 ROOT
