@<TRIPOS>MOLECULE
3LH
   53    57     1     0     0
SMALL
No Charge or Current Charge


@<TRIPOS>ATOM
      1 CAR         -3.3710     3.1590    -3.4280 c3         1 3LH      -0.077100
      2 CAT         -3.5280     1.8080    -2.6950 c3         1 3LH      -0.159400
      3 CAZ         -2.2890     1.4710    -1.8530 c          1 3LH       0.604100
      4 OAD         -1.2470     1.0930    -2.3740 o          1 3LH      -0.566100
      5 NAX         -2.4820     1.5890    -0.4830 ns         1 3LH      -0.162000
      6 CBE         -1.6110     1.3860     0.6240 ca         1 3LH      -0.013000
      7 CAP         -0.2100     1.3060     0.4730 ca         1 3LH      -0.107000
      8 CBA         -2.1730     1.2670     1.9160 ca         1 3LH      -0.113300
      9 CAA         -3.6830     1.3490     2.1290 c3         1 3LH      -0.050800
     10 CAG         -1.3330     1.0550     3.0240 ca         1 3LH      -0.092000
     11 CAH          0.0560     0.9480     2.8580 ca         1 3LH      -0.106000
     12 CBD          0.6330     1.0570     1.5780 ca         1 3LH       0.040600
     13 NBL          2.0610     0.9070     1.3870 n          1 3LH      -0.203200
     14 CBJ          2.5350     0.1290     0.2340 ca         1 3LH       0.171600
     15 CBI          1.8020    -0.9090    -0.4380 ca         1 3LH      -0.092000
     16 CAQ          0.6160    -1.4970     0.0780 ca         1 3LH      -0.080000
     17 CBF          2.9430     1.7260     2.1500 c          1 3LH       0.563200
     18 OAE          2.5930     2.3410     3.1490 o          1 3LH      -0.518000
     19 CAJ          4.3120     1.8630     1.6390 cc         1 3LH      -0.302200
     20 CAL          4.7280     1.2810     0.4730 cd         1 3LH      -0.065200
     21 CBG          3.8280     0.4000    -0.2580 ca         1 3LH      -0.224800
     22 CAN          4.2640    -0.1940    -1.4490 ca         1 3LH       0.400900
     23 NAW          3.5140    -1.0550    -2.1560 nb         1 3LH      -0.679000
     24 CBH          2.3180    -1.4260    -1.6590 ca         1 3LH       0.284000
     25 CAK          1.5780    -2.3830    -2.3730 ca         1 3LH      -0.091000
     26 CAI          0.3560    -2.8730    -1.8920 ca         1 3LH      -0.087000
     27 CBB         -0.1330    -2.4430    -0.6460 ca         1 3LH       0.008000
     28 CBC         -1.3970    -2.9470    -0.0910 cc         1 3LH      -0.156000
     29 CAM         -2.1570    -3.9020    -0.7030 cd         1 3LH      -0.157000
     30 NAV         -3.2530    -4.0830     0.1530 na         1 3LH      -0.001200
     31 NAY         -3.1920    -3.2640     1.2830 nd         1 3LH      -0.525800
     32 CAO         -2.0670    -2.6030     1.0970 cc         1 3LH       0.251900
     33 H1          -4.2660     3.3790    -4.0230 hc         1 3LH       0.044700
     34 H2          -3.2280     3.9770    -2.7110 hc         1 3LH       0.044700
     35 H3          -2.5080     3.1380    -4.1040 hc         1 3LH       0.044700
     36 H4          -4.4160     1.8680    -2.0540 hc         1 3LH       0.056200
     37 H5          -3.6680     1.0240    -3.4480 hc         1 3LH       0.056200
     38 H6          -3.4180     1.8690    -0.2200 hn         1 3LH       0.152000
     39 H7           0.2450     1.4310    -0.5030 ha         1 3LH       0.151000
     40 H8          -4.2040     0.5670     1.5620 hc         1 3LH       0.045367
     41 H9          -3.9540     1.2210     3.1840 hc         1 3LH       0.045367
     42 H10         -4.0760     2.3200     1.8070 hc         1 3LH       0.045367
     43 H11         -1.7570     0.9560     4.0220 ha         1 3LH       0.119000
     44 H12          0.6770     0.7470     3.7270 ha         1 3LH       0.132000
     45 H13          0.2650    -1.2510     1.0700 ha         1 3LH       0.127000
     46 H14          4.9630     2.5060     2.2210 ha         1 3LH       0.213000
     47 H15          5.7440     1.4530     0.1180 ha         1 3LH       0.189000
     48 H16          5.2490     0.0310    -1.8560 h4         1 3LH       0.020100
     49 H17          1.9640    -2.7580    -3.3170 ha         1 3LH       0.133000
     50 H18         -0.1850    -3.6030    -2.4860 ha         1 3LH       0.113000
     51 H19         -2.0350    -4.4540    -1.6280 h4         1 3LH       0.156000
     52 H20         -4.0290    -4.7290     0.0060 hn         1 3LH       0.373000
     53 H21         -1.7660    -1.8770     1.8410 h4         1 3LH       0.043100
@<TRIPOS>BOND
     1     1     2 1   
     2     1    33 1   
     3     1    34 1   
     4     1    35 1   
     5     2     3 1   
     6     2    36 1   
     7     2    37 1   
     8     3     4 2   
     9     3     5 1   
    10     5     6 1   
    11     5    38 1   
    12     6     7 ar  
    13     6     8 ar  
    14     7    12 ar  
    15     7    39 1   
    16     8     9 1   
    17     8    10 ar  
    18     9    40 1   
    19     9    41 1   
    20     9    42 1   
    21    10    11 ar  
    22    10    43 1   
    23    11    12 ar  
    24    11    44 1   
    25    12    13 1   
    26    13    14 1   
    27    13    17 1   
    28    14    15 ar  
    29    14    21 ar  
    30    15    16 ar  
    31    15    24 ar  
    32    16    27 ar  
    33    16    45 1   
    34    17    18 2   
    35    17    19 1   
    36    19    20 2   
    37    19    46 1   
    38    20    21 1   
    39    20    47 1   
    40    21    22 ar  
    41    22    23 ar  
    42    22    48 1   
    43    23    24 ar  
    44    24    25 ar  
    45    25    26 ar  
    46    25    49 1   
    47    26    27 ar  
    48    26    50 1   
    49    27    28 1   
    50    28    29 2   
    51    28    32 1   
    52    29    30 1   
    53    29    51 1   
    54    30    31 1   
    55    30    52 1   
    56    31    32 2   
    57    32    53 1   
@<TRIPOS>SUBSTRUCTURE
     1 3LH         1 TEMP              0 ****  ****    0 ROOT
