@<TRIPOS>MOLECULE
3LH
   53    57     1     0     0
SMALL
abcg2


@<TRIPOS>ATOM
      1 CAR         -3.6310     3.9510    -3.3320 c3         1 3LH      -0.077100
      2 CAT         -3.6990     2.8000    -2.3450 c3         1 3LH      -0.159400
      3 CAZ         -2.4740     2.6840    -1.4650 c          1 3LH       0.604100
      4 OAD         -1.4660     3.3410    -1.6330 o          1 3LH      -0.566100
      5 NAX         -2.6090     1.7610    -0.4690 ns         1 3LH      -0.162000
      6 CBE         -1.6710     1.4170     0.5090 ca         1 3LH      -0.013000
      7 CAP         -0.3020     1.4440     0.2550 ca         1 3LH      -0.107000
      8 CBA         -2.1460     0.9960     1.7610 ca         1 3LH      -0.113300
      9 CAA         -3.6170     0.9270     2.0470 c3         1 3LH      -0.050800
     10 CAG         -1.2210     0.6300     2.7330 ca         1 3LH      -0.092000
     11 CAH          0.1430     0.6550     2.4910 ca         1 3LH      -0.106000
     12 CBD          0.5830     1.0400     1.2380 ca         1 3LH       0.040600
     13 NBL          1.9800     1.0130     0.9270 n          1 3LH      -0.203200
     14 CBJ          2.5500     0.0280     0.1450 ca         1 3LH       0.171600
     15 CBI          1.8910    -1.1760    -0.3090 ca         1 3LH      -0.092000
     16 CAQ          0.6020    -1.6240     0.0610 ca         1 3LH      -0.080000
     17 CBF          2.6720     2.1410     1.4010 c          1 3LH       0.563200
     18 OAE          2.0850     2.9720     2.0710 o          1 3LH      -0.518000
     19 CAJ          4.0610     2.2440     1.0290 cc         1 3LH      -0.302200
     20 CAL          4.6240     1.3260     0.2270 cd         1 3LH      -0.065200
     21 CBG          3.8800     0.2050    -0.2380 ca         1 3LH      -0.224800
     22 CAN          4.4950    -0.7240    -1.1060 ca         1 3LH       0.400900
     23 NAW          3.9080    -1.7660    -1.5960 nb         1 3LH      -0.679000
     24 CBH          2.6290    -2.0040    -1.2030 ca         1 3LH       0.284000
     25 CAK          2.0330    -3.1720    -1.7210 ca         1 3LH      -0.091000
     26 CAI          0.7740    -3.5530    -1.3600 ca         1 3LH      -0.087000
     27 CBB          0.0390    -2.7790    -0.4390 ca         1 3LH       0.008000
     28 CBC         -1.2990    -3.1890    -0.0240 cc         1 3LH      -0.156000
     29 CAM         -2.1120    -4.1450    -0.6070 cd         1 3LH      -0.157000
     30 NAV         -3.2460    -4.1660     0.1050 na         1 3LH      -0.001200
     31 NAY         -3.2490    -3.3040     1.1140 nd         1 3LH      -0.525800
     32 CAO         -2.0780    -2.7030     1.0500 cc         1 3LH       0.251900
     33 H1          -4.5330     3.9680    -3.9420 hc         1 3LH       0.044700
     34 H2          -3.5560     4.9120    -2.8240 hc         1 3LH       0.044700
     35 H3          -2.7780     3.8570    -4.0020 hc         1 3LH       0.044700
     36 H4          -4.5860     2.8920    -1.7130 hc         1 3LH       0.056200
     37 H5          -3.8160     1.8500    -2.8770 hc         1 3LH       0.056200
     38 H6          -3.5160     1.3270    -0.3880 hn         1 3LH       0.152000
     39 H7           0.0770     1.7300    -0.7140 ha         1 3LH       0.151000
     40 H8          -4.1140     0.1700     1.4340 hc         1 3LH       0.045367
     41 H9          -3.7970     0.6620     3.0870 hc         1 3LH       0.045367
     42 H10         -4.1120     1.8790     1.8540 hc         1 3LH       0.045367
     43 H11         -1.5790     0.3110     3.7040 ha         1 3LH       0.119000
     44 H12          0.8470     0.3490     3.2540 ha         1 3LH       0.132000
     45 H13          0.0180    -1.0650     0.7660 ha         1 3LH       0.127000
     46 H14          4.6090     3.1000     1.3980 ha         1 3LH       0.213000
     47 H15          5.6590     1.4220    -0.0790 ha         1 3LH       0.189000
     48 H16          5.5260    -0.5450    -1.3970 h4         1 3LH       0.020100
     49 H17          2.6180    -3.7700    -2.4080 ha         1 3LH       0.133000
     50 H18          0.3540    -4.4630    -1.7680 ha         1 3LH       0.113000
     51 H19         -1.9720    -4.7870    -1.4610 h4         1 3LH       0.156000
     52 H20         -4.0510    -4.7480    -0.0620 hn         1 3LH       0.373000
     53 H21         -1.8180    -1.9490     1.7780 h4         1 3LH       0.043100
@<TRIPOS>BOND
     1     1     2 1   
     2     1    33 1   
     3     1    34 1   
     4     1    35 1   
     5     2     3 1   
     6     2    36 1   
     7     2    37 1   
     8     3     4 2   
     9     3     5 1   
    10     5     6 1   
    11     5    38 1   
    12     6     7 ar  
    13     6     8 ar  
    14     7    12 ar  
    15     7    39 1   
    16     8     9 1   
    17     8    10 ar  
    18     9    40 1   
    19     9    41 1   
    20     9    42 1   
    21    10    11 ar  
    22    10    43 1   
    23    11    12 ar  
    24    11    44 1   
    25    12    13 1   
    26    13    14 1   
    27    13    17 1   
    28    14    15 ar  
    29    14    21 ar  
    30    15    16 ar  
    31    15    24 ar  
    32    16    27 ar  
    33    16    45 1   
    34    17    18 2   
    35    17    19 1   
    36    19    20 2   
    37    19    46 1   
    38    20    21 1   
    39    20    47 1   
    40    21    22 ar  
    41    22    23 ar  
    42    22    48 1   
    43    23    24 ar  
    44    24    25 ar  
    45    25    26 ar  
    46    25    49 1   
    47    26    27 ar  
    48    26    50 1   
    49    27    28 1   
    50    28    29 2   
    51    28    32 1   
    52    29    30 1   
    53    29    51 1   
    54    30    31 1   
    55    30    52 1   
    56    31    32 2   
    57    32    53 1   
@<TRIPOS>SUBSTRUCTURE
     1 3LH         1 TEMP              0 ****  ****    0 ROOT
