@<TRIPOS>MOLECULE
3LI
   77    81     1     0     0
SMALL
No Charge or Current Charge


@<TRIPOS>ATOM
      1 C01          2.6040    -5.4320     2.4920 c3         1 3LI       0.086300
      2 N02          1.6410    -5.0340     1.4620 ns         1 3LI      -0.487900
      3 C03          1.8630    -4.0430     0.5330 c          1 3LI       0.624700
      4 O04          2.9330    -3.4500     0.5010 o          1 3LI      -0.636100
      5 C05          0.7600    -3.8260    -0.4720 ca         1 3LI      -0.166600
      6 C06         -0.0580    -4.9210    -0.8460 ca         1 3LI      -0.087000
      7 C07         -1.0980    -4.7570    -1.7690 ca         1 3LI      -0.118000
      8 C08         -1.3390    -3.5030    -2.3390 ca         1 3LI      -0.090000
      9 C09         -0.5450    -2.3960    -1.9870 ca         1 3LI      -0.061300
     10 C10         -0.8440    -1.0550    -2.6640 c3         1 3LI      -0.046800
     11 C11          0.5090    -2.5510    -1.0410 ca         1 3LI       0.352000
     12 N12          1.2440    -1.4270    -0.6460 nu         1 3LI      -0.949900
     13 C13          0.8530    -0.2690    -0.0160 ca         1 3LI       0.457900
     14 N14          1.6960     0.7660    -0.0630 nb         1 3LI      -0.359000
     15 C15          1.2490     1.8750     0.5550 ca         1 3LI       0.466900
     16 N16          0.0650     1.9800     1.1820 nb         1 3LI      -0.368000
     17 C17         -0.6940     0.8730     1.1660 ca         1 3LI       0.462900
     18 N18         -0.3410    -0.2830     0.5830 nb         1 3LI      -0.372000
     19 N19         -1.9580     0.9350     1.8000 nh         1 3LI      -0.769300
     20 C20         -2.8880    -0.2440     1.7980 c6         1 3LI       0.221300
     21 C21         -3.8450    -0.2170     0.5610 c6         1 3LI       0.166300
     22 N22         -4.5880     1.0810     0.4320 nh         1 3LI      -0.779400
     23 C23         -3.7010     2.2850     0.5570 c6         1 3LI       0.166300
     24 C24         -2.7460     2.2120     1.7940 c6         1 3LI       0.221300
     25 C25         -5.7620     1.1640    -0.3610 ca         1 3LI       0.273000
     26 C26         -5.7980     0.5360    -1.6230 ca         1 3LI      -0.149000
     27 C27         -6.9450     0.6090    -2.4320 ca         1 3LI      -0.091000
     28 C28         -8.0760     1.3120    -1.9860 ca         1 3LI      -0.118000
     29 C29         -8.0580     1.9420    -0.7300 ca         1 3LI      -0.091000
     30 C30         -6.9110     1.8730     0.0820 ca         1 3LI       0.109000
     31 Cl31        -6.9600     2.6650     1.6640 cl         1 3LI      -0.198000
     32 N32          2.0550     3.0340     0.5130 nh         1 3LI      -0.768300
     33 C33          1.6370     4.2970     1.1920 c5         1 3LI       0.384800
     34 S34          3.1750     5.3220     1.2450 ss         1 3LI      -0.411000
     35 C35          3.6340     4.6750    -0.4210 c5         1 3LI       0.045600
     36 C36          3.2870     3.1600    -0.3700 c5         1 3LI       0.168500
     37 C37          4.4880     2.3490     0.2580 c          1 3LI       0.600100
     38 O38          5.1880     2.6440     1.2220 o          1 3LI      -0.575100
     39 N39          4.7100     1.2110    -0.4910 ns         1 3LI      -0.490900
     40 C40          5.6850     0.1520    -0.1530 c3         1 3LI       0.016000
     41 C41          5.1660    -1.2330    -0.5970 c          1 3LI       0.578100
     42 O42          4.1210    -1.3840    -1.2200 o          1 3LI      -0.586100
     43 N43          5.9660    -2.3100    -0.2330 ns         1 3LI      -0.372400
     44 O44          5.4430    -3.6580    -0.2850 oh         1 3LI      -0.463100
     45 H01          3.5210    -5.8020     2.0170 h1         1 3LI       0.046367
     46 H01A         2.8450    -4.5690     3.1260 h1         1 3LI       0.046367
     47 H01B         2.1710    -6.2270     3.1130 h1         1 3LI       0.046367
     48 HN02         0.7340    -5.4830     1.4430 hn         1 3LI       0.326500
     49 H06          0.1180    -5.9160    -0.4420 ha         1 3LI       0.117000
     50 H07         -1.7140    -5.6090    -2.0510 ha         1 3LI       0.119000
     51 H08         -2.1470    -3.3910    -3.0590 ha         1 3LI       0.115000
     52 H10         -1.4310    -0.4020    -2.0090 hc         1 3LI       0.049367
     53 H10A         0.0770    -0.5250    -2.9340 hc         1 3LI       0.049367
     54 H10B        -1.4160    -1.1890    -3.5890 hc         1 3LI       0.049367
     55 HN12         2.2640    -1.5480    -0.6830 hn         1 3LI       0.543000
     56 H20         -2.3440    -1.1990     1.8220 h1         1 3LI       0.075200
     57 H20A        -3.5030    -0.2290     2.7100 h1         1 3LI       0.075200
     58 H21         -3.2470    -0.3960    -0.3440 h1         1 3LI       0.046700
     59 H21A        -4.5560    -1.0510     0.6530 h1         1 3LI       0.046700
     60 H23         -3.0880     2.3840    -0.3510 h1         1 3LI       0.046700
     61 H23A        -4.3050     3.2000     0.6380 h1         1 3LI       0.046700
     62 H24         -3.3540     2.2750     2.7080 h1         1 3LI       0.075200
     63 H24A        -2.0980     3.1010     1.8030 h1         1 3LI       0.075200
     64 H26         -4.9280    -0.0030    -1.9870 ha         1 3LI       0.116000
     65 H27         -6.9570     0.1220    -3.4050 ha         1 3LI       0.116000
     66 H28         -8.9640     1.3680    -2.6110 ha         1 3LI       0.119000
     67 H29         -8.9340     2.4830    -0.3830 ha         1 3LI       0.129000
     68 H33          0.8720     4.8230     0.6050 h2         1 3LI       0.083700
     69 H33A         1.2840     4.1210     2.2170 h2         1 3LI       0.083700
     70 H35          3.0280     5.1860    -1.1810 h1         1 3LI       0.085200
     71 H35A         4.6930     4.8600    -0.6450 h1         1 3LI       0.085200
     72 H36          3.1020     2.7910    -1.3890 h1         1 3LI       0.098700
     73 HN39         4.0410     1.0130    -1.2290 hn         1 3LI       0.324500
     74 H40          6.6390     0.3490    -0.6600 h1         1 3LI       0.074200
     75 H40A         5.8560     0.1250     0.9300 h1         1 3LI       0.074200
     76 HN43         6.7400    -2.1580     0.4120 hn         1 3LI       0.335500
     77 HO44         4.4770    -3.5360    -0.0300 ho         1 3LI       0.489000
@<TRIPOS>BOND
     1     1     2 1   
     2     1    45 1   
     3     1    46 1   
     4     1    47 1   
     5     2     3 1   
     6     2    48 1   
     7     3     4 2   
     8     3     5 1   
     9     5     6 ar  
    10     5    11 ar  
    11     6     7 ar  
    12     6    49 1   
    13     7     8 ar  
    14     7    50 1   
    15     8     9 ar  
    16     8    51 1   
    17     9    10 1   
    18     9    11 ar  
    19    10    52 1   
    20    10    53 1   
    21    10    54 1   
    22    11    12 1   
    23    12    13 1   
    24    12    55 1   
    25    13    14 ar  
    26    13    18 ar  
    27    14    15 ar  
    28    15    16 ar  
    29    15    32 1   
    30    16    17 ar  
    31    17    18 ar  
    32    17    19 1   
    33    19    20 1   
    34    19    24 1   
    35    20    21 1   
    36    20    56 1   
    37    20    57 1   
    38    21    22 1   
    39    21    58 1   
    40    21    59 1   
    41    22    23 1   
    42    22    25 1   
    43    23    24 1   
    44    23    60 1   
    45    23    61 1   
    46    24    62 1   
    47    24    63 1   
    48    25    26 ar  
    49    25    30 ar  
    50    26    27 ar  
    51    26    64 1   
    52    27    28 ar  
    53    27    65 1   
    54    28    29 ar  
    55    28    66 1   
    56    29    30 ar  
    57    29    67 1   
    58    30    31 1   
    59    32    33 1   
    60    32    36 1   
    61    33    34 1   
    62    33    68 1   
    63    33    69 1   
    64    34    35 1   
    65    35    36 1   
    66    35    70 1   
    67    35    71 1   
    68    36    37 1   
    69    36    72 1   
    70    37    38 2   
    71    37    39 1   
    72    39    40 1   
    73    39    73 1   
    74    40    41 1   
    75    40    74 1   
    76    40    75 1   
    77    41    42 2   
    78    41    43 1   
    79    43    44 1   
    80    43    76 1   
    81    44    77 1   
@<TRIPOS>SUBSTRUCTURE
     1 3LI         1 TEMP              0 ****  ****    0 ROOT
