@<TRIPOS>MOLECULE
3LI
   77    81     1     0     0
SMALL
abcg2


@<TRIPOS>ATOM
      1 C01          3.1110    -4.5360     2.3700 c3         1 3LI       0.086300
      2 N02          2.0090    -4.4230     1.4420 ns         1 3LI      -0.487900
      3 C03          2.1390    -3.9430     0.2090 c          1 3LI       0.624700
      4 O04          3.2100    -3.5390    -0.2520 o          1 3LI      -0.636100
      5 C05          0.9020    -3.9420    -0.6240 ca         1 3LI      -0.166600
      6 C06          0.1620    -5.1150    -0.7380 ca         1 3LI      -0.087000
      7 C07         -0.9650    -5.1460    -1.5420 ca         1 3LI      -0.118000
      8 C08         -1.3420    -4.0080    -2.2360 ca         1 3LI      -0.090000
      9 C09         -0.6170    -2.8220    -2.1470 ca         1 3LI      -0.061300
     10 C10         -1.0470    -1.6290    -2.9440 c3         1 3LI      -0.046800
     11 C11          0.5130    -2.7930    -1.3210 ca         1 3LI       0.352000
     12 N12          1.2650    -1.6090    -1.2000 nu         1 3LI      -0.949900
     13 C13          0.8040    -0.4810    -0.6050 ca         1 3LI       0.457900
     14 N14          1.6410     0.5540    -0.5840 nb         1 3LI      -0.359000
     15 C15          1.1400     1.6350     0.0130 ca         1 3LI       0.466900
     16 N16         -0.0850     1.7510     0.5160 nb         1 3LI      -0.368000
     17 C17         -0.8340     0.6500     0.4280 ca         1 3LI       0.462900
     18 N18         -0.4200    -0.5040    -0.1020 nb         1 3LI      -0.372000
     19 N19         -2.0850     0.6960     0.9240 nh         1 3LI      -0.769300
     20 C20         -3.0130    -0.4100     0.8110 c6         1 3LI       0.221300
     21 C21         -4.1790    -0.0370    -0.0910 c6         1 3LI       0.166300
     22 N22         -4.8130     1.1660     0.4150 nh         1 3LI      -0.779400
     23 C23         -3.8720     2.2800     0.4740 c6         1 3LI       0.166300
     24 C24         -2.7040     1.9250     1.3770 c6         1 3LI       0.221300
     25 C25         -6.0820     1.4780    -0.0880 ca         1 3LI       0.273000
     26 C26         -6.5140     1.0790    -1.3550 ca         1 3LI      -0.149000
     27 C27         -7.7840     1.3900    -1.8200 ca         1 3LI      -0.091000
     28 C28         -8.6530     2.1310    -1.0340 ca         1 3LI      -0.118000
     29 C29         -8.2510     2.5390     0.2300 ca         1 3LI      -0.091000
     30 C30         -6.9900     2.2040     0.6940 ca         1 3LI       0.109000
     31 CL31        -6.5610     2.6560     2.3130 cl         1 3LI      -0.198000
     32 N32          1.9400     2.7180     0.0950 nh         1 3LI      -0.768300
     33 C33          1.5400     3.8900     0.8520 c5         1 3LI       0.384800
     34 S34          3.0750     4.7950     1.1880 ss         1 3LI      -0.411000
     35 C35          3.8150     4.1040    -0.3120 c5         1 3LI       0.045600
     36 C36          3.3040     2.6660    -0.3620 c5         1 3LI       0.168500
     37 C37          4.1350     1.7310     0.5200 c          1 3LI       0.600100
     38 O38          3.7800     1.4020     1.6360 o          1 3LI      -0.575100
     39 N39          5.2990     1.3530    -0.0410 ns         1 3LI      -0.490900
     40 C40          6.1700     0.3780     0.5570 c3         1 3LI       0.016000
     41 C41          5.9120    -1.0020    -0.0320 c          1 3LI       0.578100
     42 O42          5.8100    -1.1760    -1.2340 o          1 3LI      -0.586100
     43 N43          5.8220    -1.9730     0.8810 ns         1 3LI      -0.372400
     44 O44          5.7450    -3.2780     0.5090 oh         1 3LI      -0.463100
     45 H01          3.9160    -5.1440     1.9580 h1         1 3LI       0.046367
     46 H01A         3.5120    -3.5590     2.6400 h1         1 3LI       0.046367
     47 H01B         2.7470    -5.0190     3.2710 h1         1 3LI       0.046367
     48 HN02         1.0880    -4.6660     1.7680 hn         1 3LI       0.326500
     49 H06          0.4730    -6.0080    -0.2100 ha         1 3LI       0.117000
     50 H07         -1.5380    -6.0580    -1.6400 ha         1 3LI       0.119000
     51 H08         -2.2140    -4.0400    -2.8780 ha         1 3LI       0.115000
     52 H10         -1.6350    -0.9430    -2.3330 hc         1 3LI       0.049367
     53 H10A        -0.1940    -1.0690    -3.3270 hc         1 3LI       0.049367
     54 H10B        -1.6610    -1.9340    -3.7900 hc         1 3LI       0.049367
     55 HN12         2.2600    -1.6540    -1.3550 hn         1 3LI       0.543000
     56 H20         -2.4980    -1.2810     0.4150 h1         1 3LI       0.075200
     57 H20A        -3.3910    -0.6580     1.8070 h1         1 3LI       0.075200
     58 H21         -3.8080     0.0800    -1.1220 h1         1 3LI       0.046700
     59 H21A        -4.9020    -0.8540    -0.0920 h1         1 3LI       0.046700
     60 H23         -3.4960     2.5280    -0.5300 h1         1 3LI       0.046700
     61 H23A        -4.3630     3.1690     0.8650 h1         1 3LI       0.046700
     62 H24         -3.0660     1.7900     2.4010 h1         1 3LI       0.075200
     63 H24A        -1.9720     2.7260     1.3770 h1         1 3LI       0.075200
     64 H26         -5.8450     0.5160    -1.9920 ha         1 3LI       0.116000
     65 H27         -8.0840     1.0610    -2.8050 ha         1 3LI       0.116000
     66 H28         -9.6420     2.3850    -1.3900 ha         1 3LI       0.119000
     67 H29         -8.9240     3.1030     0.8630 ha         1 3LI       0.129000
     68 H33          0.8460     4.5100     0.2820 h2         1 3LI       0.083700
     69 H33A         1.0710     3.6220     1.7970 h2         1 3LI       0.083700
     70 H35          3.4820     4.6540    -1.1930 h1         1 3LI       0.085200
     71 H35A         4.9000     4.1670    -0.2550 h1         1 3LI       0.085200
     72 H36          3.3450     2.3100    -1.3950 h1         1 3LI       0.098700
     73 HN39         5.4700     1.5860    -1.0060 hn         1 3LI       0.324500
     74 H40          7.2080     0.6420     0.3400 h1         1 3LI       0.074200
     75 H40A         6.0520     0.4030     1.6390 h1         1 3LI       0.074200
     76 HN43         5.9270    -1.8080     1.8710 hn         1 3LI       0.335500
     77 HO44         4.7950    -3.4390     0.2950 ho         1 3LI       0.489000
@<TRIPOS>BOND
     1     1     2 1   
     2     1    45 1   
     3     1    46 1   
     4     1    47 1   
     5     2     3 1   
     6     2    48 1   
     7     3     4 2   
     8     3     5 1   
     9     5     6 ar  
    10     5    11 ar  
    11     6     7 ar  
    12     6    49 1   
    13     7     8 ar  
    14     7    50 1   
    15     8     9 ar  
    16     8    51 1   
    17     9    10 1   
    18     9    11 ar  
    19    10    52 1   
    20    10    53 1   
    21    10    54 1   
    22    11    12 1   
    23    12    13 1   
    24    12    55 1   
    25    13    14 ar  
    26    13    18 ar  
    27    14    15 ar  
    28    15    16 ar  
    29    15    32 1   
    30    16    17 ar  
    31    17    18 ar  
    32    17    19 1   
    33    19    20 1   
    34    19    24 1   
    35    20    21 1   
    36    20    56 1   
    37    20    57 1   
    38    21    22 1   
    39    21    58 1   
    40    21    59 1   
    41    22    23 1   
    42    22    25 1   
    43    23    24 1   
    44    23    60 1   
    45    23    61 1   
    46    24    62 1   
    47    24    63 1   
    48    25    26 ar  
    49    25    30 ar  
    50    26    27 ar  
    51    26    64 1   
    52    27    28 ar  
    53    27    65 1   
    54    28    29 ar  
    55    28    66 1   
    56    29    30 ar  
    57    29    67 1   
    58    30    31 1   
    59    32    33 1   
    60    32    36 1   
    61    33    34 1   
    62    33    68 1   
    63    33    69 1   
    64    34    35 1   
    65    35    36 1   
    66    35    70 1   
    67    35    71 1   
    68    36    37 1   
    69    36    72 1   
    70    37    38 2   
    71    37    39 1   
    72    39    40 1   
    73    39    73 1   
    74    40    41 1   
    75    40    74 1   
    76    40    75 1   
    77    41    42 2   
    78    41    43 1   
    79    43    44 1   
    80    43    76 1   
    81    44    77 1   
@<TRIPOS>SUBSTRUCTURE
     1 3LI         1 TEMP              0 ****  ****    0 ROOT
