@<TRIPOS>MOLECULE
3LJ
   28    28     1     0     0
SMALL
abcg2


@<TRIPOS>ATOM
      1 O1           2.1550     1.9480    -1.1990 oh         1 3LJ      -0.670000
      2 C1           1.9730     1.6040     0.1350 c6         1 3LJ       0.388300
      3 C2           3.0860     0.6510     0.5670 c6         1 3LJ       0.114500
      4 C3           2.9200    -0.6870    -0.1470 c6         1 3LJ       0.133300
      5 C4           1.5230    -1.2410     0.1030 c6         1 3LJ       0.134300
      6 C5           0.4750    -0.2030    -0.2990 c6         1 3LJ       0.170300
      7 C6          -0.9160    -0.6560     0.0890 c3         1 3LJ       0.220600
      8 O3           3.8460    -1.6450     0.3290 oh         1 3LJ      -0.683000
      9 O4           1.2890    -2.4100    -0.6430 oh         1 3LJ      -0.706000
     10 O5           0.7180     1.0190     0.3730 os         1 3LJ      -0.451000
     11 O6          -1.8430     0.3040    -0.3990 os         1 3LJ      -0.593700
     12 N            4.3930     1.2170     0.2870 n8         1 3LJ      -0.983200
     13 S           -3.3970     0.1630     0.1130 s6         1 3LJ       1.500300
     14 O7          -4.0250     1.2640    -0.6130 o          1 3LJ      -0.711533
     15 O8          -3.8290    -1.1740    -0.3030 o          1 3LJ      -0.711533
     16 O9          -3.3520     0.3390     1.5670 o          1 3LJ      -0.711533
     17 H1           1.5370     2.6520    -1.4250 ho         1 3LJ       0.459000
     18 H2           1.9820     2.4950     0.7760 h2         1 3LJ       0.051700
     19 H3           2.9210     0.4750     1.6430 h1         1 3LJ       0.040700
     20 H4           3.0480    -0.5360    -1.2270 h1         1 3LJ       0.071700
     21 H5           1.4180    -1.4350     1.1830 h1         1 3LJ       0.047700
     22 H6           0.5200    -0.0650    -1.3880 h1         1 3LJ       0.069700
     23 H7          -1.1150    -1.6380    -0.3450 h1         1 3LJ       0.047700
     24 H8          -0.9780    -0.7450     1.1790 h1         1 3LJ       0.047700
     25 H9           4.6290    -1.6270    -0.2280 ho         1 3LJ       0.444000
     26 H10          1.9730    -3.0470    -0.4110 ho         1 3LJ       0.505000
     27 H11          4.4740     2.1220     0.7380 hn         1 3LJ       0.388500
     28 H12          5.1000     0.6420     0.7270 hn         1 3LJ       0.388500
@<TRIPOS>BOND
     1     1     2 1   
     2     1    17 1   
     3     2     3 1   
     4     2    10 1   
     5     2    18 1   
     6     3     4 1   
     7     3    12 1   
     8     3    19 1   
     9     4     5 1   
    10     4     8 1   
    11     4    20 1   
    12     5     6 1   
    13     5     9 1   
    14     5    21 1   
    15     6     7 1   
    16     6    10 1   
    17     6    22 1   
    18     7    11 1   
    19     7    23 1   
    20     7    24 1   
    21     8    25 1   
    22     9    26 1   
    23    11    13 1   
    24    12    27 1   
    25    12    28 1   
    26    13    14 1   
    27    13    15 1   
    28    13    16 1   
@<TRIPOS>SUBSTRUCTURE
     1 3LJ         1 TEMP              0 ****  ****    0 ROOT
