@<TRIPOS>MOLECULE
3LJ
   28    28     1     0     0
SMALL
No Charge or Current Charge


@<TRIPOS>ATOM
      1 O1           2.1470     2.0450    -1.0180 oh         1 3LJ      -0.670000
      2 C1           2.1150     1.5750     0.3280 c6         1 3LJ       0.388300
      3 C2           3.2250     0.4890     0.6030 c6         1 3LJ       0.114500
      4 C3           2.9080    -0.8020    -0.2050 c6         1 3LJ       0.133300
      5 C4           1.4740    -1.3080     0.1150 c6         1 3LJ       0.134300
      6 C5           0.4570    -0.1640    -0.1990 c6         1 3LJ       0.170300
      7 C6          -1.0070    -0.5610     0.1680 c3         1 3LJ       0.220600
      8 O3           3.9030    -1.7980     0.0850 oh         1 3LJ      -0.683000
      9 O4           1.2070    -2.5030    -0.6410 oh         1 3LJ      -0.706000
     10 O5           0.8050     1.0270     0.5700 os         1 3LJ      -0.451000
     11 O6          -1.9230     0.4400    -0.3190 os         1 3LJ      -0.593700
     12 N            4.6330     0.9360     0.3230 n8         1 3LJ      -0.983200
     13 S           -3.5110     0.1690    -0.0100 s6         1 3LJ       1.500300
     14 O7          -4.1860     1.3390    -0.5890 o          1 3LJ      -0.711533
     15 O8          -3.7970    -1.0990    -0.6970 o          1 3LJ      -0.711533
     16 O9          -3.5840     0.0880     1.4560 o          1 3LJ      -0.711533
     17 H1           1.3640     2.6290    -1.0960 ho         1 3LJ       0.459000
     18 H2           2.2750     2.4230     1.0110 h2         1 3LJ       0.051700
     19 H3           3.1850     0.2360     1.6730 h1         1 3LJ       0.040700
     20 H4           2.9480    -0.5470    -1.2760 h1         1 3LJ       0.071700
     21 H5           1.4180    -1.5310     1.1920 h1         1 3LJ       0.047700
     22 H6           0.4880     0.0670    -1.2730 h1         1 3LJ       0.069700
     23 H7          -1.2270    -1.5360    -0.2870 h1         1 3LJ       0.047700
     24 H8          -1.0740    -0.6710     1.2590 h1         1 3LJ       0.047700
     25 H9           4.7110    -1.2590     0.2610 ho         1 3LJ       0.444000
     26 H10          2.0610    -2.9990    -0.6330 ho         1 3LJ       0.505000
     27 H11          4.6340     1.4060    -0.5920 hn         1 3LJ       0.388500
     28 H12          4.8770     1.6950     0.9720 hn         1 3LJ       0.388500
@<TRIPOS>BOND
     1     1     2 1   
     2     1    17 1   
     3     2     3 1   
     4     2    10 1   
     5     2    18 1   
     6     3     4 1   
     7     3    12 1   
     8     3    19 1   
     9     4     5 1   
    10     4     8 1   
    11     4    20 1   
    12     5     6 1   
    13     5     9 1   
    14     5    21 1   
    15     6     7 1   
    16     6    10 1   
    17     6    22 1   
    18     7    11 1   
    19     7    23 1   
    20     7    24 1   
    21     8    25 1   
    22     9    26 1   
    23    11    13 1   
    24    12    27 1   
    25    12    28 1   
    26    13    14 1   
    27    13    15 1   
    28    13    16 1   
@<TRIPOS>SUBSTRUCTURE
     1 3LJ         1 TEMP              0 ****  ****    0 ROOT
