@<TRIPOS>MOLECULE
3LK
   94    97     1     0     0
SMALL
bcc


@<TRIPOS>ATOM
      1 C4           4.8020     0.8960     0.6350 c5         1 3LK      -0.159700
      2 C14          2.4620     0.0500     0.2100 c3         1 3LK       0.162100
      3 C5           3.3300     1.3250     0.4030 c6         1 3LK      -0.005000
      4 C6           3.3220     2.2280    -0.8610 c6         1 3LK      -0.055700
      5 C11          4.8350    -2.1300     0.4830 c3         1 3LK       0.159100
      6 C7           3.9810     1.5320    -2.0530 c6         1 3LK      -0.077400
      7 C8           5.3980     1.0590    -1.7660 c6         1 3LK      -0.071400
      8 C9           5.5230     0.1570    -0.5250 c5         1 3LK      -0.035000
      9 C10          5.0460    -1.2910    -0.8180 c3         1 3LK      -0.081700
     10 C12          3.3600    -2.3680     0.8830 c3         1 3LK      -0.029000
     11 C13          2.6560    -1.0490     1.2670 c3         1 3LK      -0.093400
     12 N1          -6.3450     0.4070    -0.8130 n          1 3LK      -0.473800
     13 C3           5.8180     1.9790     1.0030 c          1 3LK       0.579100
     14 O4           0.4220    -0.6630    -1.5440 o          1 3LK      -0.518000
     15 C29         -8.5580     0.0010     0.2900 c3         1 3LK       0.096500
     16 C30         -8.5830    -0.0290     1.8310 c3         1 3LK      -0.095700
     17 C31         -7.5330     0.9090     2.4200 c3         1 3LK      -0.090100
     18 C19          2.6020    -3.1120    -0.2330 c3         1 3LK      -0.071400
     19 C20          1.2200    -3.6280     0.1500 c3         1 3LK      -0.085100
     20 C18          3.3580    -3.2110     2.1690 c3         1 3LK      -0.081100
     21 O3           1.0790     0.4650     0.2860 os         1 3LK      -0.432900
     22 C15          2.8090     2.0880     1.6290 c3         1 3LK      -0.090100
     23 C16          1.9780     2.8170    -1.2890 c3         1 3LK      -0.083100
     24 C17          5.9870    -1.9950    -1.8010 c3         1 3LK      -0.088100
     25 C28         -7.1880    -0.4610    -0.2100 c          1 3LK       0.687100
     26 C26         -6.5030     1.8490    -0.9330 c6         1 3LK       0.107000
     27 C27         -5.0870    -0.0760    -1.3590 c6         1 3LK       0.103000
     28 C24         -4.0040     2.0990    -0.7650 c6         1 3LK      -0.072400
     29 C25         -5.3550     2.5750    -0.2450 c6         1 3LK      -0.099400
     30 C23         -3.9050     0.5850    -0.6530 c6         1 3LK      -0.010600
     31 C22         -1.1750     0.5680    -0.2450 c3         1 3LK      -0.075300
     32 O2           5.4440    -3.4050     0.4160 oh         1 3LK      -0.595800
     33 O1           5.6160     3.0490     1.5260 o          1 3LK      -0.517100
     34 S           -2.3910    -0.0900    -1.4090 ss         1 3LK      -0.256200
     35 C1           6.9910     0.1500    -0.0520 c5         1 3LK      -0.074400
     36 C2           7.2020     1.4900     0.6350 c5         1 3LK      -0.197400
     37 O5          -6.9030    -1.6450    -0.0680 o          1 3LK      -0.608100
     38 N2          -9.5270    -0.8570    -0.3770 n8         1 3LK      -0.880800
     39 C32         -9.9650     0.3340     2.3620 c3         1 3LK      -0.090100
     40 H1           4.8430     0.2600     1.5320 hc         1 3LK       0.072700
     41 H2           2.6190    -0.3460    -0.7890 h1         1 3LK       0.077700
     42 H3           3.9510     3.0850    -0.5950 hc         1 3LK       0.054700
     43 H4           5.2890    -1.5870     1.3230 h1         1 3LK       0.021700
     44 H5           3.3590     0.6980    -2.3930 hc         1 3LK       0.046200
     45 H6           4.0080     2.2300    -2.8950 hc         1 3LK       0.046200
     46 H7           5.8060     0.5530    -2.6440 hc         1 3LK       0.042700
     47 H8           6.0320     1.9440    -1.6370 hc         1 3LK       0.042700
     48 H9           4.1000    -1.2350    -1.3560 hc         1 3LK       0.068700
     49 H10          3.1580    -0.6440     2.1510 hc         1 3LK       0.053700
     50 H11          1.6640    -1.3250     1.6280 hc         1 3LK       0.053700
     51 H12         -8.7870     1.0190    -0.0260 h1         1 3LK       0.062700
     52 H13         -8.3500    -1.0530     2.1460 hc         1 3LK       0.068700
     53 H14         -7.7190     1.9430     2.1180 hc         1 3LK       0.035367
     54 H15         -7.5560     0.8790     3.5100 hc         1 3LK       0.035367
     55 H16         -6.5190     0.6520     2.1110 hc         1 3LK       0.035367
     56 H17          2.4980    -2.4670    -1.1090 hc         1 3LK       0.051700
     57 H18          1.2750    -4.4310     0.8850 hc         1 3LK       0.031700
     58 H19          0.5820    -2.8480     0.5650 hc         1 3LK       0.031700
     59 H20          4.0270    -2.7780     2.9170 hc         1 3LK       0.037033
     60 H21          2.3620    -3.2450     2.6150 hc         1 3LK       0.037033
     61 H22          3.6720    -4.2390     1.9920 hc         1 3LK       0.037033
     62 H23          3.3630     3.0070     1.7880 hc         1 3LK       0.045700
     63 H24          1.7610     2.3560     1.5240 hc         1 3LK       0.045700
     64 H25          2.9020     1.4900     2.5390 hc         1 3LK       0.045700
     65 H26          1.4060     3.2320    -0.4600 hc         1 3LK       0.034367
     66 H27          2.1590     3.6300    -1.9940 hc         1 3LK       0.034367
     67 H28          1.3500     2.0960    -1.8130 hc         1 3LK       0.034367
     68 H29          5.5750    -2.9570    -2.1030 hc         1 3LK       0.037033
     69 H30          6.1110    -1.4060    -2.7080 hc         1 3LK       0.037033
     70 H31          6.9870    -2.1740    -1.4010 hc         1 3LK       0.037033
     71 H32         -6.5220     2.1100    -1.9970 h1         1 3LK       0.051200
     72 H33         -7.4470     2.1730    -0.5090 h1         1 3LK       0.051200
     73 H34         -5.0430    -1.1570    -1.2580 h1         1 3LK       0.076700
     74 H35         -5.0570     0.1630    -2.4280 h1         1 3LK       0.076700
     75 H36         -3.8860     2.3850    -1.8150 hc         1 3LK       0.050700
     76 H37         -3.2000     2.5860    -0.2100 hc         1 3LK       0.050700
     77 H38         -5.4650     3.6490    -0.4110 hc         1 3LK       0.049700
     78 H39         -5.4170     2.4110     0.8340 hc         1 3LK       0.049700
     79 H40         -3.9170     0.2850     0.4000 h1         1 3LK       0.073700
     80 H41         -1.4330     0.2840     0.7780 h1         1 3LK       0.085700
     81 H42         -1.1470     1.6600    -0.2780 h1         1 3LK       0.085700
     82 H43          6.3980    -3.2890     0.4120 ho         1 3LK       0.401000
     83 H44          7.1510    -0.6620     0.6610 hc         1 3LK       0.049200
     84 H45          7.6850    -0.0060    -0.8790 hc         1 3LK       0.049200
     85 H46          7.6710     2.2310    -0.0180 hc         1 3LK       0.074200
     86 H47          7.8250     1.4330     1.5300 hc         1 3LK       0.074200
     87 H48         -9.4400    -1.8060    -0.0340 hn         1 3LK       0.352300
     88 H49        -10.4640    -0.5520    -0.1490 hn         1 3LK       0.352300
     89 H51        -10.7370    -0.3550     2.0180 hc         1 3LK       0.035367
     90 H52         -9.9760     0.3080     3.4530 hc         1 3LK       0.035367
     91 H53        -10.2520     1.3430     2.0540 hc         1 3LK       0.035367
     92 H50          3.2060    -3.9610    -0.5630 hc         1 3LK       0.051700
     93 H54          0.7080    -4.0260    -0.7270 hc         1 3LK       0.031700
     94 C21          0.1920     0.0370    -0.5900 c          1 3LK       0.662100
@<TRIPOS>BOND
     1     1     3 1   
     2     1     8 1   
     3     1    13 1   
     4     1    40 1   
     5     2     3 1   
     6     2    11 1   
     7     2    21 1   
     8     2    41 1   
     9     3     4 1   
    10     3    22 1   
    11     4     6 1   
    12     4    23 1   
    13     4    42 1   
    14     5     9 1   
    15     5    10 1   
    16     5    32 1   
    17     5    43 1   
    18     6     7 1   
    19     6    44 1   
    20     6    45 1   
    21     7     8 1   
    22     7    46 1   
    23     7    47 1   
    24     8     9 1   
    25     8    35 1   
    26     9    24 1   
    27     9    48 1   
    28    10    11 1   
    29    10    18 1   
    30    10    20 1   
    31    11    49 1   
    32    11    50 1   
    33    12    25 1   
    34    12    26 1   
    35    12    27 1   
    36    13    33 2   
    37    13    36 1   
    38    14    94 2   
    39    15    16 1   
    40    15    25 1   
    41    15    38 1   
    42    15    51 1   
    43    16    17 1   
    44    16    39 1   
    45    16    52 1   
    46    17    53 1   
    47    17    54 1   
    48    17    55 1   
    49    18    19 1   
    50    18    56 1   
    51    18    92 1   
    52    19    57 1   
    53    19    58 1   
    54    19    93 1   
    55    20    59 1   
    56    20    60 1   
    57    20    61 1   
    58    21    94 1   
    59    22    62 1   
    60    22    63 1   
    61    22    64 1   
    62    23    65 1   
    63    23    66 1   
    64    23    67 1   
    65    24    68 1   
    66    24    69 1   
    67    24    70 1   
    68    25    37 2   
    69    26    29 1   
    70    26    71 1   
    71    26    72 1   
    72    27    30 1   
    73    27    73 1   
    74    27    74 1   
    75    28    29 1   
    76    28    30 1   
    77    28    75 1   
    78    28    76 1   
    79    29    77 1   
    80    29    78 1   
    81    30    34 1   
    82    30    79 1   
    83    31    34 1   
    84    31    80 1   
    85    31    81 1   
    86    31    94 1   
    87    32    82 1   
    88    35    36 1   
    89    35    83 1   
    90    35    84 1   
    91    36    85 1   
    92    36    86 1   
    93    38    87 1   
    94    38    88 1   
    95    39    89 1   
    96    39    90 1   
    97    39    91 1   
@<TRIPOS>SUBSTRUCTURE
     1 3LK         1 TEMP              0 ****  ****    0 ROOT
