@<TRIPOS>MOLECULE
3LK
   94    97     1     0     0
SMALL
No Charge or Current Charge


@<TRIPOS>ATOM
      1 C4           4.8250     1.0080     1.1700 c5         1 3LK      -0.159700
      2 C14          2.6240     0.3000     0.0590 c3         1 3LK       0.185300
      3 C5           3.4890     1.5200     0.5710 c6         1 3LK      -0.005000
      4 C6           3.7990     2.5100    -0.6380 c6         1 3LK      -0.055700
      5 C11          5.3000    -2.1540     0.2650 c3         1 3LK       0.182300
      6 C7           4.6650     1.9000    -1.8160 c6         1 3LK      -0.077400
      7 C8           6.0920     1.4000    -1.4410 c6         1 3LK      -0.071400
      8 C9           6.1040     0.2590    -0.3810 c5         1 3LK      -0.035000
      9 C10          5.5900    -1.1220    -0.9070 c3         1 3LK      -0.081700
     10 C12          3.8020    -2.6740     0.4500 c3         1 3LK      -0.029000
     11 C13          2.8540    -1.5810     1.0800 c3         1 3LK      -0.093400
     12 N1          -6.9450    -0.2140    -0.4800 n          1 3LK      -0.406800
     13 C3           5.9120     1.9180     1.7410 c          1 3LK       0.579100
     14 O4           0.2110    -0.9670    -1.2280 o          1 3LK      -0.469000
     15 C29         -9.0960    -0.0680     0.9980 c3         1 3LK       0.096500
     16 C30         -9.1310     0.9690     2.1710 c3         1 3LK      -0.095700
     17 C31         -8.0620     2.0810     2.0330 c3         1 3LK      -0.090100
     18 C19          3.2250    -3.2040    -0.9150 c3         1 3LK      -0.071400
     19 C20          1.9020    -4.0100    -0.8610 c3         1 3LK      -0.085100
     20 C18          3.8150    -3.8470     1.4880 c3         1 3LK      -0.081100
     21 O3           0.6610     0.7620     0.1780 os         1 3LK      -0.456100
     22 C15          2.7040     2.2080     1.7320 c3         1 3LK      -0.090100
     23 C16          2.5170     3.1560    -1.2540 c3         1 3LK      -0.083100
     24 C17          6.4550    -1.6960    -2.0690 c3         1 3LK      -0.088100
     25 C28         -7.6300    -0.5980     0.7050 c          1 3LK       0.620100
     26 C26         -7.2370     1.0210    -1.2640 c6         1 3LK       0.107000
     27 C27         -5.6650    -0.8640    -0.8860 c6         1 3LK       0.103000
     28 C24         -4.7240     1.3860    -1.5800 c6         1 3LK      -0.072400
     29 C25         -6.0690     2.0340    -1.1740 c6         1 3LK      -0.099400
     30 C23         -4.4610     0.1020    -0.7550 c6         1 3LK       0.037300
     31 C22         -1.6480     0.3720    -0.3460 c3         1 3LK      -0.027400
     32 O2           6.2060    -3.2660     0.1630 oh         1 3LK      -0.658000
     33 O1           5.9710     3.1410     1.7300 o          1 3LK      -0.517100
     34 S           -2.8730    -0.7170    -1.2350 ss         1 3LK      -0.352000
     35 C1           7.4400     0.2470     0.4540 c5         1 3LK      -0.074400
     36 C2           7.1380     0.9690     1.8430 c5         1 3LK      -0.197400
     37 O5          -7.1170    -1.4150     1.4660 o          1 3LK      -0.608100
     38 N2         -10.1000    -1.1580     1.2540 n8         1 3LK      -0.991200
     39 C32        -10.5310     1.6130     2.3590 c3         1 3LK      -0.090100
     40 H1           4.6380     0.2140     1.8940 hc         1 3LK       0.072700
     41 H2           2.8510     0.1200    -0.9930 h1         1 3LK       0.077700
     42 H3           4.3590     3.3650    -0.2410 hc         1 3LK       0.054700
     43 H4           5.5440    -1.6480     1.2070 h1         1 3LK       0.021700
     44 H5           4.1180     1.1100    -2.3450 hc         1 3LK       0.046200
     45 H6           4.7980     2.6830    -2.5750 hc         1 3LK       0.046200
     46 H7           6.6370     1.1020    -2.3450 hc         1 3LK       0.042700
     47 H8           6.6470     2.2620    -1.0480 hc         1 3LK       0.042700
     48 H9           4.6340    -0.9190    -1.3830 hc         1 3LK       0.068700
     49 H10          3.1650    -1.3790     2.1110 hc         1 3LK       0.053700
     50 H11          1.8480    -2.0030     1.1840 hc         1 3LK       0.053700
     51 H12         -9.4530     0.4410     0.0960 h1         1 3LK       0.062700
     52 H13         -8.8950     0.4260     3.0960 hc         1 3LK       0.068700
     53 H14         -8.2270     2.6750     1.1260 hc         1 3LK       0.035367
     54 H15         -8.1030     2.7630     2.8910 hc         1 3LK       0.035367
     55 H16         -7.0490     1.6640     2.0000 hc         1 3LK       0.035367
     56 H17          3.0510    -2.3640    -1.5940 hc         1 3LK       0.051700
     57 H18          2.0320    -4.9560    -0.3230 hc         1 3LK       0.031700
     58 H19          1.0980    -3.4440    -0.3790 hc         1 3LK       0.031700
     59 H20          4.3650    -3.5620     2.3930 hc         1 3LK       0.037033
     60 H21          2.8000    -4.1230     1.7990 hc         1 3LK       0.037033
     61 H22          4.2850    -4.7480     1.0750 hc         1 3LK       0.037033
     62 H23          3.2690     3.0410     2.1640 hc         1 3LK       0.045700
     63 H24          1.7390     2.6150     1.4140 hc         1 3LK       0.045700
     64 H25          2.4980     1.4930     2.5370 hc         1 3LK       0.045700
     65 H26          1.9460     3.7290    -0.5160 hc         1 3LK       0.034367
     66 H27          2.7790     3.8590    -2.0540 hc         1 3LK       0.034367
     67 H28          1.8500     2.4040    -1.6910 hc         1 3LK       0.034367
     68 H29          6.0690    -2.6670    -2.4040 hc         1 3LK       0.037033
     69 H30          6.4320    -1.0360    -2.9430 hc         1 3LK       0.037033
     70 H31          7.5010    -1.8210    -1.7680 hc         1 3LK       0.037033
     71 H32         -7.3940     0.7410    -2.3160 h1         1 3LK       0.051200
     72 H33         -8.1510     1.5220    -0.9280 h1         1 3LK       0.051200
     73 H34         -5.4730    -1.7650    -0.2880 h1         1 3LK       0.076700
     74 H35         -5.7510    -1.1930    -1.9320 h1         1 3LK       0.076700
     75 H36         -4.7390     1.1430    -2.6510 hc         1 3LK       0.050700
     76 H37         -3.9090     2.1070    -1.4340 hc         1 3LK       0.050700
     77 H38         -6.2780     2.8990    -1.8180 hc         1 3LK       0.049700
     78 H39         -5.9940     2.4200    -0.1490 hc         1 3LK       0.049700
     79 H40         -4.3700     0.3770     0.3060 h1         1 3LK       0.073700
     80 H41         -1.8690     0.3710     0.7280 h1         1 3LK       0.085700
     81 H42         -1.7340     1.4020    -0.7100 h1         1 3LK       0.085700
     82 H43          7.0990    -2.8880     0.0230 ho         1 3LK       0.440000
     83 H44          7.8150    -0.7690     0.6230 hc         1 3LK       0.049200
     84 H45          8.2420     0.7640    -0.0860 hc         1 3LK       0.049200
     85 H46          8.0110     1.5190     2.2100 hc         1 3LK       0.074200
     86 H47          6.8800     0.1760     2.5540 hc         1 3LK       0.074200
     87 H48         -9.7810    -1.7190     2.0550 hn         1 3LK       0.407500
     88 H49        -10.9760    -0.7390     1.5840 hn         1 3LK       0.407500
     89 H51        -11.2900     0.8660     2.6190 hc         1 3LK       0.035367
     90 H52        -10.5110     2.3500     3.1710 hc         1 3LK       0.035367
     91 H53        -10.8500     2.1260     1.4430 hc         1 3LK       0.035367
     92 H50          3.9780    -3.8380    -1.3990 hc         1 3LK       0.051700
     93 H54          1.5730    -4.2530    -1.8780 hc         1 3LK       0.031700
     94 C21         -0.1810    -0.0550    -0.5150 c          1 3LK       0.613100
@<TRIPOS>BOND
     1     1     3 1   
     2     1     8 1   
     3     1    13 1   
     4     1    40 1   
     5     2     3 1   
     6     2    11 1   
     7     2    21 1   
     8     2    41 1   
     9     3     4 1   
    10     3    22 1   
    11     4     6 1   
    12     4    23 1   
    13     4    42 1   
    14     5     9 1   
    15     5    10 1   
    16     5    32 1   
    17     5    43 1   
    18     6     7 1   
    19     6    44 1   
    20     6    45 1   
    21     7     8 1   
    22     7    46 1   
    23     7    47 1   
    24     8     9 1   
    25     8    35 1   
    26     9    24 1   
    27     9    48 1   
    28    10    11 1   
    29    10    18 1   
    30    10    20 1   
    31    11    49 1   
    32    11    50 1   
    33    12    25 1   
    34    12    26 1   
    35    12    27 1   
    36    13    33 2   
    37    13    36 1   
    38    14    94 2   
    39    15    16 1   
    40    15    25 1   
    41    15    38 1   
    42    15    51 1   
    43    16    17 1   
    44    16    39 1   
    45    16    52 1   
    46    17    53 1   
    47    17    54 1   
    48    17    55 1   
    49    18    19 1   
    50    18    56 1   
    51    18    92 1   
    52    19    57 1   
    53    19    58 1   
    54    19    93 1   
    55    20    59 1   
    56    20    60 1   
    57    20    61 1   
    58    21    94 1   
    59    22    62 1   
    60    22    63 1   
    61    22    64 1   
    62    23    65 1   
    63    23    66 1   
    64    23    67 1   
    65    24    68 1   
    66    24    69 1   
    67    24    70 1   
    68    25    37 2   
    69    26    29 1   
    70    26    71 1   
    71    26    72 1   
    72    27    30 1   
    73    27    73 1   
    74    27    74 1   
    75    28    29 1   
    76    28    30 1   
    77    28    75 1   
    78    28    76 1   
    79    29    77 1   
    80    29    78 1   
    81    30    34 1   
    82    30    79 1   
    83    31    34 1   
    84    31    80 1   
    85    31    81 1   
    86    31    94 1   
    87    32    82 1   
    88    35    36 1   
    89    35    83 1   
    90    35    84 1   
    91    36    85 1   
    92    36    86 1   
    93    38    87 1   
    94    38    88 1   
    95    39    89 1   
    96    39    90 1   
    97    39    91 1   
@<TRIPOS>SUBSTRUCTURE
     1 3LK         1 TEMP              0 ****  ****    0 ROOT
