@<TRIPOS>MOLECULE
3LP
   57    60     1     0     0
SMALL
No Charge or Current Charge


@<TRIPOS>ATOM
      1 OAB          2.7960     2.1670    -4.3800 oh         1 3LP      -0.634000
      2 CAW          2.7330     0.7460    -4.2260 c3         1 3LP       0.153300
      3 CAO          2.0890     0.4610    -2.8430 c3         1 3LP       0.160800
      4 NAQ          2.6350     1.3960    -1.8190 n7         1 3LP      -0.848400
      5 CAX          2.0410     1.3390    -0.4680 c6         1 3LP       0.174500
      6 CAN          2.9300     2.1340     0.5240 c6         1 3LP      -0.074900
      7 CAJ          2.3410     2.1180     1.9560 c6         1 3LP      -0.073400
      8 CAF          0.8920     2.6630     1.9700 c6         1 3LP      -0.075400
      9 CAI         -0.0060     1.8770     0.9830 c6         1 3LP      -0.073400
     10 CAM          0.5860     1.8870    -0.4490 c6         1 3LP      -0.074900
     11 CAP          1.9730     0.1110    -5.4130 c3         1 3LP       0.038600
     12 NAY          1.8920    -1.3600    -5.3340 na         1 3LP      -0.088700
     13 CAV          0.8290    -2.0710    -4.7900 ca         1 3LP      -0.041200
     14 CAD         -0.3930    -1.5940    -4.2880 ca         1 3LP      -0.128000
     15 CAC         -1.3170    -2.5290    -3.7750 ca         1 3LP      -0.092000
     16 CAR         -1.0150    -3.9140    -3.7690 ca         1 3LP      -0.106300
     17 CAA         -2.0210    -4.9110    -3.2160 c3         1 3LP      -0.040800
     18 CAE          0.2190    -4.3630    -4.2870 ca         1 3LP      -0.063000
     19 CAU          1.1150    -3.4090    -4.7890 ca         1 3LP      -0.084800
     20 CAS          2.4160    -3.5880    -5.3660 cc         1 3LP      -0.132400
     21 CAT          2.8760    -2.3120    -5.6820 cd         1 3LP      -0.061300
     22 CAK          3.2310    -4.8430    -5.5780 c6         1 3LP       0.000800
     23 CAG          4.4340    -4.5780    -6.5220 c6         1 3LP      -0.075400
     24 CAH          5.1680    -3.2630    -6.1580 c6         1 3LP      -0.069400
     25 CAL          4.2300    -2.0380    -6.3030 c6         1 3LP      -0.016200
     26 HAA1        -1.5250    -5.8120    -2.8350 hc         1 3LP       0.038033
     27 HAA2        -2.5980    -4.4800    -2.3890 hc         1 3LP       0.038033
     28 HAA3        -2.7300    -5.2230    -3.9920 hc         1 3LP       0.038033
     29 HAC         -2.2690    -2.1790    -3.3830 ha         1 3LP       0.108000
     30 HAD         -0.6350    -0.5350    -4.2910 ha         1 3LP       0.114000
     31 HAE          0.4720    -5.4210    -4.2990 ha         1 3LP       0.112000
     32 HAK1         3.6040    -5.2080    -4.6120 hc         1 3LP       0.046200
     33 HAK2         2.6090    -5.6490    -5.9910 hc         1 3LP       0.046200
     34 HAG1         5.1330    -5.4250    -6.4790 hc         1 3LP       0.042200
     35 HAG2         4.0790    -4.5200    -7.5610 hc         1 3LP       0.042200
     36 HAH1         6.0520    -3.1330    -6.7960 hc         1 3LP       0.042700
     37 HAH2         5.5360    -3.3240    -5.1240 hc         1 3LP       0.042700
     38 HAL1         4.1020    -1.8020    -7.3690 hc         1 3LP       0.046200
     39 HAL2         4.7030    -1.1580    -5.8470 hc         1 3LP       0.046200
     40 HAP1         2.4890     0.3720    -6.3450 h1         1 3LP       0.062200
     41 HAP2         0.9610     0.5280    -5.4710 h1         1 3LP       0.062200
     42 HAW          3.7540     0.3410    -4.2100 h1         1 3LP       0.032700
     43 HAB          2.7370     2.4810    -3.4440 ho         1 3LP       0.436000
     44 HAO1         1.0030     0.5900    -2.9380 h1         1 3LP       0.046700
     45 HAO2         2.2740    -0.5850    -2.5610 h1         1 3LP       0.046700
     46 HAQ          3.6370     1.1870    -1.7220 hn         1 3LP       0.403000
     47 HAX          2.0260     0.2890    -0.1410 h1         1 3LP       0.019700
     48 HAM1        -0.0590     1.2860    -1.1020 hc         1 3LP       0.045700
     49 HAM2         0.5690     2.9110    -0.8480 hc         1 3LP       0.045700
     50 HAI1        -0.1160     0.8400     1.3300 hc         1 3LP       0.037950
     51 HAI2        -1.0150     2.3110     0.9720 hc         1 3LP       0.037950
     52 HAF1         0.8940     3.7280     1.7010 hc         1 3LP       0.039200
     53 HAF2         0.4780     2.5970     2.9850 hc         1 3LP       0.039200
     54 HAJ1         2.9710     2.7200     2.6260 hc         1 3LP       0.037950
     55 HAJ2         2.3550     1.0930     2.3510 hc         1 3LP       0.037950
     56 HAN1         3.0330     3.1730     0.1810 hc         1 3LP       0.045700
     57 HAN2         3.9430     1.7090     0.5420 hc         1 3LP       0.045700
@<TRIPOS>BOND
     1     1     2 1   
     2     1    43 1   
     3     2     3 1   
     4     2    11 1   
     5     2    42 1   
     6     3     4 1   
     7     3    44 1   
     8     3    45 1   
     9     4     5 1   
    10     4    46 1   
    11     5     6 1   
    12     5    10 1   
    13     5    47 1   
    14     6     7 1   
    15     6    56 1   
    16     6    57 1   
    17     7     8 1   
    18     7    54 1   
    19     7    55 1   
    20     8     9 1   
    21     8    52 1   
    22     8    53 1   
    23     9    10 1   
    24     9    50 1   
    25     9    51 1   
    26    10    48 1   
    27    10    49 1   
    28    11    12 1   
    29    11    40 1   
    30    11    41 1   
    31    12    13 1   
    32    12    21 1   
    33    13    14 ar  
    34    13    19 ar  
    35    14    15 ar  
    36    14    30 1   
    37    15    16 ar  
    38    15    29 1   
    39    16    17 1   
    40    16    18 ar  
    41    17    26 1   
    42    17    27 1   
    43    17    28 1   
    44    18    19 ar  
    45    18    31 1   
    46    19    20 1   
    47    20    21 2   
    48    20    22 1   
    49    21    25 1   
    50    22    23 1   
    51    22    32 1   
    52    22    33 1   
    53    23    24 1   
    54    23    34 1   
    55    23    35 1   
    56    24    25 1   
    57    24    36 1   
    58    24    37 1   
    59    25    38 1   
    60    25    39 1   
@<TRIPOS>SUBSTRUCTURE
     1 3LP         1 TEMP              0 ****  ****    0 ROOT
