@<TRIPOS>MOLECULE
3LP
   57    60     1     0     0
SMALL
bcc


@<TRIPOS>ATOM
      1 OAB          2.6610     2.2100    -4.6780 oh         1 3LP      -0.571800
      2 CAW          2.5630     0.8550    -4.3060 c3         1 3LP       0.130100
      3 CAO          1.7900     0.7770    -3.0020 c3         1 3LP       0.160800
      4 NAQ          2.5220     1.4020    -1.9190 n7         1 3LP      -0.793200
      5 CAX          1.8760     1.2800    -0.6210 c6         1 3LP       0.174500
      6 CAN          2.8970     1.5400     0.4840 c6         1 3LP      -0.074900
      7 CAJ          2.2660     1.4470     1.8680 c6         1 3LP      -0.073400
      8 CAF          1.0880     2.4050     2.0010 c6         1 3LP      -0.075400
      9 CAI          0.0640     2.1670     0.8960 c6         1 3LP      -0.073400
     10 CAM          0.7050     2.2520    -0.4860 c6         1 3LP      -0.074900
     11 CAP          1.8850     0.0610    -5.4330 c3         1 3LP       0.009300
     12 NAY          1.8540    -1.3630    -5.2130 na         1 3LP      -0.059400
     13 CAV          0.8020    -2.0780    -4.6960 ca         1 3LP      -0.041200
     14 CAD         -0.4620    -1.6660    -4.2840 ca         1 3LP      -0.146000
     15 CAC         -1.3290    -2.6300    -3.8010 ca         1 3LP      -0.110000
     16 CAR         -0.9730    -3.9880    -3.7160 ca         1 3LP      -0.106300
     17 CAA         -1.9670    -4.9970    -3.2100 c3         1 3LP      -0.040800
     18 CAE          0.2910    -4.3810    -4.1260 ca         1 3LP      -0.081000
     19 CAU          1.1920    -3.4330    -4.6210 ca         1 3LP      -0.084800
     20 CAS          2.5300    -3.5060    -5.1190 cc         1 3LP      -0.132400
     21 CAT          2.8920    -2.2340    -5.4600 cd         1 3LP      -0.061300
     22 CAK          3.4210    -4.6910    -5.2970 c6         1 3LP       0.000800
     23 CAG          4.5650    -4.3470    -6.2530 c6         1 3LP      -0.075400
     24 CAH          5.1940    -2.9990    -5.9120 c6         1 3LP      -0.069400
     25 CAL          4.1990    -1.8450    -6.0610 c6         1 3LP      -0.016200
     26 HAA1        -1.4780    -5.8110    -2.6760 hc         1 3LP       0.038033
     27 HAA2        -2.6920    -4.5430    -2.5340 hc         1 3LP       0.038033
     28 HAA3        -2.5330    -5.4460    -4.0310 hc         1 3LP       0.038033
     29 HAC         -2.3150    -2.3250    -3.4700 ha         1 3LP       0.126000
     30 HAD         -0.7680    -0.6280    -4.3230 ha         1 3LP       0.132000
     31 HAE          0.5830    -5.4240    -4.0610 ha         1 3LP       0.130000
     32 HAK1         3.8290    -5.0140    -4.3330 hc         1 3LP       0.046200
     33 HAK2         2.8560    -5.5440    -5.6840 hc         1 3LP       0.046200
     34 HAG1         5.3230    -5.1310    -6.2220 hc         1 3LP       0.042200
     35 HAG2         4.1840    -4.3170    -7.2790 hc         1 3LP       0.042200
     36 HAH1         6.0580    -2.8110    -6.5520 hc         1 3LP       0.042700
     37 HAH2         5.5660    -3.0230    -4.8830 hc         1 3LP       0.042700
     38 HAL1         4.0640    -1.5980    -7.1200 hc         1 3LP       0.046200
     39 HAL2         4.6070    -0.9460    -5.5920 hc         1 3LP       0.046200
     40 HAP1         2.4060     0.2580    -6.3730 h1         1 3LP       0.062200
     41 HAP2         0.8620     0.4170    -5.5730 h1         1 3LP       0.062200
     42 HAW          3.5620     0.4220    -4.1380 h1         1 3LP       0.032700
     43 HAB          3.2550     2.2800    -5.4320 ho         1 3LP       0.397000
     44 HAO1         0.8280     1.2820    -3.1420 h1         1 3LP       0.046700
     45 HAO2         1.5580    -0.2770    -2.7900 h1         1 3LP       0.046700
     46 HAQ          3.4290     0.9500    -1.8610 hn         1 3LP       0.347800
     47 HAX          1.4800     0.2580    -0.4690 h1         1 3LP       0.019700
     48 HAM1        -0.0500     2.0560    -1.2520 hc         1 3LP       0.045700
     49 HAM2         1.0740     3.2680    -0.6640 hc         1 3LP       0.045700
     50 HAI1        -0.3840     1.1750     1.0260 hc         1 3LP       0.037950
     51 HAI2        -0.7540     2.8870     0.9730 hc         1 3LP       0.037950
     52 HAF1         1.4550     3.4360     1.9390 hc         1 3LP       0.039200
     53 HAF2         0.6200     2.3000     2.9830 hc         1 3LP       0.039200
     54 HAJ1         3.0170     1.6560     2.6340 hc         1 3LP       0.037950
     55 HAJ2         1.9230     0.4210     2.0440 hc         1 3LP       0.037950
     56 HAN1         3.3270     2.5380     0.3400 hc         1 3LP       0.045700
     57 HAN2         3.7220     0.8260     0.3990 hc         1 3LP       0.045700
@<TRIPOS>BOND
     1     1     2 1   
     2     1    43 1   
     3     2     3 1   
     4     2    11 1   
     5     2    42 1   
     6     3     4 1   
     7     3    44 1   
     8     3    45 1   
     9     4     5 1   
    10     4    46 1   
    11     5     6 1   
    12     5    10 1   
    13     5    47 1   
    14     6     7 1   
    15     6    56 1   
    16     6    57 1   
    17     7     8 1   
    18     7    54 1   
    19     7    55 1   
    20     8     9 1   
    21     8    52 1   
    22     8    53 1   
    23     9    10 1   
    24     9    50 1   
    25     9    51 1   
    26    10    48 1   
    27    10    49 1   
    28    11    12 1   
    29    11    40 1   
    30    11    41 1   
    31    12    13 1   
    32    12    21 1   
    33    13    14 ar  
    34    13    19 ar  
    35    14    15 ar  
    36    14    30 1   
    37    15    16 ar  
    38    15    29 1   
    39    16    17 1   
    40    16    18 ar  
    41    17    26 1   
    42    17    27 1   
    43    17    28 1   
    44    18    19 ar  
    45    18    31 1   
    46    19    20 1   
    47    20    21 2   
    48    20    22 1   
    49    21    25 1   
    50    22    23 1   
    51    22    32 1   
    52    22    33 1   
    53    23    24 1   
    54    23    34 1   
    55    23    35 1   
    56    24    25 1   
    57    24    36 1   
    58    24    37 1   
    59    25    38 1   
    60    25    39 1   
@<TRIPOS>SUBSTRUCTURE
     1 3LP         1 TEMP              0 ****  ****    0 ROOT
