@<TRIPOS>MOLECULE
3LQ
   47    50     1     0     0
SMALL
No Charge or Current Charge


@<TRIPOS>ATOM
      1 C00          3.1870    -3.1520     0.1560 ca         1 3LQ      -0.192000
      2 C01          3.5080    -4.2830     0.9260 ca         1 3LQ      -0.071000
      3 C02          2.5860    -4.7880     1.8570 ca         1 3LQ      -0.134000
      4 C03          1.3360    -4.1670     2.0190 ca         1 3LQ      -0.077000
      5 C04          0.9990    -3.0430     1.2450 ca         1 3LQ       0.064100
      6 C05          1.9320    -2.5200     0.3120 ca         1 3LQ       0.125100
      7 O0A         -0.2390    -2.4610     1.4410 os         1 3LQ      -0.241200
      8 O0B          1.5940    -1.3940    -0.4120 os         1 3LQ      -0.323100
      9 C0D          2.4230    -0.8250    -1.4350 c3         1 3LQ       0.139600
     10 C0E          1.6370     0.3500    -2.0650 c3         1 3LQ       0.100000
     11 N0H          1.2840     1.5180    -1.1970 n          1 3LQ      -0.305000
     12 C0K          0.4780     2.5250    -1.7780 c          1 3LQ       0.625000
     13 N0M          0.1920     3.6010    -0.9980 ns         1 3LQ      -0.468500
     14 C0N          0.5800     3.8370     0.2790 c          1 3LQ       0.590200
     15 C0O          1.4060     2.7750     0.8390 cc         1 3LQ      -0.374200
     16 C0P          1.7450     1.6540     0.1170 cd         1 3LQ      -0.001400
     17 O0Q          0.0520     2.4600    -2.9190 o          1 3LQ      -0.541000
     18 O0S          0.2580     4.8440     0.8820 o          1 3LQ      -0.528000
     19 CAH         -1.0140    -2.0130     0.3910 ca         1 3LQ       0.157100
     20 CAI         -1.5160    -0.6910     0.3850 ca         1 3LQ      -0.033000
     21 CAY         -1.2620     0.1940     1.4550 ca         1 3LQ      -0.079000
     22 CAZ         -1.7700     1.5040     1.4280 ca         1 3LQ      -0.106000
     23 CBA         -2.5320     1.9460     0.3300 ca         1 3LQ      -0.012000
     24 CBC         -3.0580     3.2840     0.3030 cg         1 3LQ       0.324000
     25 NBD         -3.4870     4.3690     0.2680 n1         1 3LQ      -0.455000
     26 CBB         -2.7770     1.0720    -0.7450 ca         1 3LQ      -0.058000
     27 CAJ         -2.2740    -0.2430    -0.7210 ca         1 3LQ      -0.009000
     28 CAK         -2.5270    -1.1100    -1.8010 ca         1 3LQ      -0.122000
     29 CAL         -2.0310    -2.4230    -1.7850 ca         1 3LQ      -0.069000
     30 CAM         -1.2760    -2.8740    -0.6910 ca         1 3LQ      -0.181000
     31 H1           3.9230    -2.7760    -0.5490 ha         1 3LQ       0.117000
     32 H2           4.4760    -4.7670     0.8040 ha         1 3LQ       0.117000
     33 H3           2.8400    -5.6610     2.4550 ha         1 3LQ       0.123000
     34 H4           0.6230    -4.5590     2.7400 ha         1 3LQ       0.135000
     35 H5           3.3770    -0.4680    -1.0270 h1         1 3LQ       0.043200
     36 H6           2.6350    -1.5680    -2.2140 h1         1 3LQ       0.043200
     37 H7           2.2230     0.7260    -2.9130 h1         1 3LQ       0.082200
     38 H8           0.7070    -0.0620    -2.4780 h1         1 3LQ       0.082200
     39 H9          -0.3770     4.3140    -1.4250 hn         1 3LQ       0.344500
     40 H10          1.7380     2.9250     1.8610 ha         1 3LQ       0.222000
     41 H11          2.3610     0.8480     0.5020 h4         1 3LQ       0.198000
     42 H12         -0.6720    -0.1280     2.3100 ha         1 3LQ       0.134000
     43 H13         -1.5700     2.1740     2.2610 ha         1 3LQ       0.131000
     44 H14         -3.3610     1.4120    -1.5980 ha         1 3LQ       0.125000
     45 H15         -3.1090    -0.7680    -2.6540 ha         1 3LQ       0.118000
     46 H16         -2.2290    -3.0900    -2.6230 ha         1 3LQ       0.113000
     47 H17         -0.8880    -3.8890    -0.6840 ha         1 3LQ       0.123000
@<TRIPOS>BOND
     1     1     2 ar  
     2     1     6 ar  
     3     1    31 1   
     4     2     3 ar  
     5     2    32 1   
     6     3     4 ar  
     7     3    33 1   
     8     4     5 ar  
     9     4    34 1   
    10     5     6 ar  
    11     5     7 1   
    12     6     8 1   
    13     7    19 1   
    14     8     9 1   
    15     9    10 1   
    16     9    35 1   
    17     9    36 1   
    18    10    11 1   
    19    10    37 1   
    20    10    38 1   
    21    11    12 1   
    22    11    16 1   
    23    12    13 1   
    24    12    17 2   
    25    13    14 1   
    26    13    39 1   
    27    14    15 1   
    28    14    18 2   
    29    15    16 2   
    30    15    40 1   
    31    16    41 1   
    32    19    20 ar  
    33    19    30 ar  
    34    20    21 ar  
    35    20    27 ar  
    36    21    22 ar  
    37    21    42 1   
    38    22    23 ar  
    39    22    43 1   
    40    23    24 1   
    41    23    26 ar  
    42    24    25 3   
    43    26    27 ar  
    44    26    44 1   
    45    27    28 ar  
    46    28    29 ar  
    47    28    45 1   
    48    29    30 ar  
    49    29    46 1   
    50    30    47 1   
@<TRIPOS>SUBSTRUCTURE
     1 3LQ         1 TEMP              0 ****  ****    0 ROOT
