@<TRIPOS>MOLECULE
3LQ
   47    50     1     0     0
SMALL
bcc


@<TRIPOS>ATOM
      1 C00          3.0360    -3.2360     0.0370 ca         1 3LQ      -0.210000
      2 C01          3.0320    -4.3270     0.8990 ca         1 3LQ      -0.089000
      3 C02          1.9960    -4.5160     1.7980 ca         1 3LQ      -0.152000
      4 C03          0.9490    -3.6010     1.8370 ca         1 3LQ      -0.095000
      5 C04          0.9540    -2.5120     0.9890 ca         1 3LQ       0.064100
      6 C05          1.9940    -2.3160     0.0710 ca         1 3LQ       0.125100
      7 O0A         -0.0380    -1.5720     1.0910 os         1 3LQ      -0.241200
      8 O0B          1.8850    -1.2380    -0.7200 os         1 3LQ      -0.299900
      9 C0D          2.9850    -0.8650    -1.5230 c3         1 3LQ       0.116400
     10 C0E          2.6270     0.4420    -2.2020 c3         1 3LQ       0.100000
     11 N0H          2.1790     1.4430    -1.2440 n          1 3LQ      -0.372000
     12 C0K          0.8320     1.7320    -1.1430 c          1 3LQ       0.834500
     13 N0M          0.5170     2.6080    -0.1340 ns         1 3LQ      -0.602500
     14 C0N          1.3650     3.2090     0.7800 c          1 3LQ       0.732700
     15 C0O          2.7500     2.8540     0.5940 cc         1 3LQ      -0.324200
     16 C0P          3.0820     2.0010    -0.3900 cd         1 3LQ       0.048600
     17 O0Q         -0.0110     1.2740    -1.8830 o          1 3LQ      -0.616500
     18 O0S          0.9250     3.9580     1.6340 o          1 3LQ      -0.603500
     19 CAH         -0.9990    -1.5010     0.1370 ca         1 3LQ       0.157100
     20 CAI         -1.8680    -0.3830     0.2410 ca         1 3LQ      -0.033000
     21 CAY         -1.7340     0.5870     1.2610 ca         1 3LQ      -0.097000
     22 CAZ         -2.5880     1.6500     1.3330 ca         1 3LQ      -0.124000
     23 CBA         -3.6180     1.7860     0.3720 ca         1 3LQ      -0.012000
     24 CBC         -4.5090     2.8980     0.4510 cg         1 3LQ       0.234800
     25 NBD         -5.2290     3.7950     0.5260 n1         1 3LQ      -0.365800
     26 CBB         -3.7730     0.8590    -0.6300 ca         1 3LQ      -0.076000
     27 CAJ         -2.9050    -0.2470    -0.7180 ca         1 3LQ      -0.009000
     28 CAK         -3.0570    -1.2130    -1.7390 ca         1 3LQ      -0.140000
     29 CAL         -2.2060    -2.2800    -1.7920 ca         1 3LQ      -0.087000
     30 CAM         -1.1700    -2.4330    -0.8510 ca         1 3LQ      -0.199000
     31 H1           3.8570    -3.1150    -0.6580 ha         1 3LQ       0.135000
     32 H2           3.8530    -5.0310     0.8590 ha         1 3LQ       0.135000
     33 H3           1.9940    -5.3670     2.4660 ha         1 3LQ       0.141000
     34 H4           0.1320    -3.7230     2.5370 ha         1 3LQ       0.153000
     35 H5           3.8850    -0.7540    -0.9090 h1         1 3LQ       0.043200
     36 H6           3.1980    -1.6130    -2.2930 h1         1 3LQ       0.043200
     37 H7           3.5030     0.8180    -2.7290 h1         1 3LQ       0.082200
     38 H8           1.8400     0.2930    -2.9350 h1         1 3LQ       0.082200
     39 H9          -0.4690     2.8250    -0.0530 hn         1 3LQ       0.344500
     40 H10          3.5060     3.2720     1.2400 ha         1 3LQ       0.172000
     41 H11          4.1120     1.7160    -0.5570 h4         1 3LQ       0.148000
     42 H12         -0.9450     0.4970     1.9940 ha         1 3LQ       0.152000
     43 H13         -2.4820     2.3880     2.1170 ha         1 3LQ       0.149000
     44 H14         -4.5660     0.9680    -1.3590 ha         1 3LQ       0.143000
     45 H15         -3.8520    -1.0990    -2.4640 ha         1 3LQ       0.136000
     46 H16         -2.3190    -3.0280    -2.5660 ha         1 3LQ       0.131000
     47 H17         -0.5190    -3.2950    -0.9210 ha         1 3LQ       0.141000
@<TRIPOS>BOND
     1     1     2 ar  
     2     1     6 ar  
     3     1    31 1   
     4     2     3 ar  
     5     2    32 1   
     6     3     4 ar  
     7     3    33 1   
     8     4     5 ar  
     9     4    34 1   
    10     5     6 ar  
    11     5     7 1   
    12     6     8 1   
    13     7    19 1   
    14     8     9 1   
    15     9    10 1   
    16     9    35 1   
    17     9    36 1   
    18    10    11 1   
    19    10    37 1   
    20    10    38 1   
    21    11    12 1   
    22    11    16 1   
    23    12    13 1   
    24    12    17 2   
    25    13    14 1   
    26    13    39 1   
    27    14    15 1   
    28    14    18 2   
    29    15    16 2   
    30    15    40 1   
    31    16    41 1   
    32    19    20 ar  
    33    19    30 ar  
    34    20    21 ar  
    35    20    27 ar  
    36    21    22 ar  
    37    21    42 1   
    38    22    23 ar  
    39    22    43 1   
    40    23    24 1   
    41    23    26 ar  
    42    24    25 3   
    43    26    27 ar  
    44    26    44 1   
    45    27    28 ar  
    46    28    29 ar  
    47    28    45 1   
    48    29    30 ar  
    49    29    46 1   
    50    30    47 1   
@<TRIPOS>SUBSTRUCTURE
     1 3LQ         1 TEMP              0 ****  ****    0 ROOT
