@<TRIPOS>MOLECULE
3LR
   22    21     1     0     0
SMALL
No Charge or Current Charge


@<TRIPOS>ATOM
      1 O1A         -2.9890    -0.9490    -1.0190 o          1 3LR      -0.722500
      2 C1          -2.6410    -0.0390    -0.2790 c          1 3LR       0.691000
      3 O1B         -3.3320     0.9470    -0.0500 o          1 3LR      -0.722500
      4 C2          -1.3030    -0.1950     0.5370 c3         1 3LR       0.024300
      5 O2          -1.2760     0.6840     1.6930 oh         1 3LR      -0.713000
      6 C3          -0.0630     0.0890    -0.3540 c3         1 3LR      -0.099400
      7 C4           1.3030    -0.2830     0.2910 c3         1 3LR       0.138300
      8 O4           1.3420    -1.7070     0.5010 oh         1 3LR      -0.659000
      9 C5           2.5370     0.1630    -0.5700 c3         1 3LR       0.128300
     10 C6           3.8960    -0.2090     0.0630 c3         1 3LR      -0.118100
     11 O5           2.5280     1.5840    -0.7800 oh         1 3LR      -0.656000
     12 H2          -1.2640    -1.2410     0.8690 h1         1 3LR       0.033700
     13 HO2         -2.0570     1.2780     1.5700 ho         1 3LR       0.472000
     14 H3          -0.1670    -0.4600    -1.2980 hc         1 3LR       0.051200
     15 H3A         -0.0690     1.1530    -0.6200 hc         1 3LR       0.051200
     16 H4           1.3740     0.2320     1.2600 h1         1 3LR       0.075700
     17 HO4          1.1820    -2.1330    -0.3680 ho         1 3LR       0.430000
     18 H5           2.4690    -0.3450    -1.5430 h1         1 3LR       0.061700
     19 H6           4.0000    -1.2970     0.1570 hc         1 3LR       0.033367
     20 H6A          4.7240     0.1500    -0.5600 hc         1 3LR       0.033367
     21 H6B          3.9990     0.2320     1.0620 hc         1 3LR       0.033367
     22 HO5          2.7150     2.0070     0.0870 ho         1 3LR       0.434000
@<TRIPOS>BOND
     1     1     2 1   
     2     2     3 1   
     3     2     4 1   
     4     4     5 1   
     5     4     6 1   
     6     4    12 1   
     7     5    13 1   
     8     6     7 1   
     9     6    14 1   
    10     6    15 1   
    11     7     8 1   
    12     7     9 1   
    13     7    16 1   
    14     8    17 1   
    15     9    10 1   
    16     9    11 1   
    17     9    18 1   
    18    10    19 1   
    19    10    20 1   
    20    10    21 1   
    21    11    22 1   
@<TRIPOS>SUBSTRUCTURE
     1 3LR         1 TEMP              0 ****  ****    0 ROOT
