@<TRIPOS>MOLECULE
3LR
   22    21     1     0     0
SMALL
bcc


@<TRIPOS>ATOM
      1 O1A         -2.7790    -0.5160    -1.3340 o          1 3LR      -0.827800
      2 C1          -2.5590     0.0870    -0.2730 c          1 3LR       0.901600
      3 O1B         -3.2770     0.9590     0.2700 o          1 3LR      -0.827800
      4 C2          -1.2580    -0.2450     0.4900 c3         1 3LR       0.001100
      5 O2          -1.2240     0.4900     1.6900 oh         1 3LR      -0.650800
      6 C3          -0.0380     0.0530    -0.3780 c3         1 3LR      -0.099400
      7 C4           1.2920    -0.2390     0.3100 c3         1 3LR       0.115100
      8 O4           1.3810    -1.5910     0.7130 oh         1 3LR      -0.596800
      9 C5           2.4910     0.1510    -0.5710 c3         1 3LR       0.105100
     10 C6           3.8240    -0.2160     0.0640 c3         1 3LR      -0.118100
     11 O5           2.4420     1.5260    -0.9060 oh         1 3LR      -0.593800
     12 H2          -1.2720    -1.3210     0.7160 h1         1 3LR       0.033700
     13 HO2         -2.0350     1.0290     1.6180 ho         1 3LR       0.433000
     14 H3          -0.1040    -0.5420    -1.2950 hc         1 3LR       0.051200
     15 H3A         -0.0610     1.1020    -0.6840 hc         1 3LR       0.051200
     16 H4           1.3540     0.3460     1.2350 h1         1 3LR       0.075700
     17 HO4          1.2540    -2.1450    -0.0650 ho         1 3LR       0.391000
     18 H5           2.4010    -0.3800    -1.5270 h1         1 3LR       0.061700
     19 H6           3.9180    -1.2910     0.2060 hc         1 3LR       0.033367
     20 H6A          4.6490     0.1080    -0.5720 hc         1 3LR       0.033367
     21 H6B          3.9430     0.2610     1.0410 hc         1 3LR       0.033367
     22 HO5          2.5640     2.0350    -0.0970 ho         1 3LR       0.395000
@<TRIPOS>BOND
     1     1     2 1   
     2     2     3 1   
     3     2     4 1   
     4     4     5 1   
     5     4     6 1   
     6     4    12 1   
     7     5    13 1   
     8     6     7 1   
     9     6    14 1   
    10     6    15 1   
    11     7     8 1   
    12     7     9 1   
    13     7    16 1   
    14     8    17 1   
    15     9    10 1   
    16     9    11 1   
    17     9    18 1   
    18    10    19 1   
    19    10    20 1   
    20    10    21 1   
    21    11    22 1   
@<TRIPOS>SUBSTRUCTURE
     1 3LR         1 TEMP              0 ****  ****    0 ROOT
