@<TRIPOS>MOLECULE
3LS
   51    55     1     0     0
SMALL
bcc


@<TRIPOS>ATOM
      1 OAA         -2.0610     2.7810    -0.2200 o          1 3LS      -0.822800
      2 CAF         -6.4760    -0.8280    -0.0660 cc         1 3LS      -0.000600
      3 CAG         -5.1070    -0.4700     0.2170 cc         1 3LS       0.005900
      4 CAI         -2.6190    -0.3740     0.3290 cc         1 3LS       0.037400
      5 CAJ         -1.2220    -0.7100     0.1630 cc         1 3LS      -0.048600
      6 CAL          1.2410    -0.7130    -0.1670 cc         1 3LS      -0.048600
      7 CAM          2.6390    -0.3780    -0.3310 cc         1 3LS       0.037400
      8 CAO          5.1270    -0.4700    -0.2130 cc         1 3LS       0.005900
      9 CAR          8.9700    -0.8380     0.3270 cc         1 3LS      -0.113700
     10 CAS         10.4140    -0.4260     0.2960 c          1 3LS       0.950200
     11 OAU          2.1010     2.7920     0.2130 o          1 3LS      -0.822800
     12 CAW         -8.3670    -1.9980    -0.7450 cd         1 3LS      -0.174000
     13 CAX         -6.9590    -1.9960    -0.6060 cd         1 3LS      -0.194000
     14 CAY         -4.6280     0.5560     0.9860 cd         1 3LS      -0.135500
     15 CAZ         -3.2130     0.6250     1.0580 cd         1 3LS      -0.012300
     16 CBA         -0.6890    -1.9740     0.0960 cd         1 3LS      -0.200000
     17 CBB          0.7070    -1.9750    -0.0950 cd         1 3LS      -0.200000
     18 CBH         -2.5020     1.6730     1.8430 c3         1 3LS      -0.183100
     19 CBL          2.1730     2.9330    -1.0180 c          1 3LS       0.941600
     20 CAD         -8.9500    -0.8430    -0.3120 cc         1 3LS      -0.113700
     21 CAP          6.4960    -0.8260     0.0740 cc         1 3LS      -0.000600
     22 OAB        -11.2170    -1.2650    -0.7060 o          1 3LS      -0.839550
     23 OAT         11.2370    -1.2540     0.7260 o          1 3LS      -0.839550
     24 OAV        -10.6140     0.7050     0.1760 o          1 3LS      -0.839550
     25 SAE         -7.7700     0.2680     0.2630 ss         1 3LS      -0.055800
     26 SAH         -3.7990    -1.3720    -0.4560 ss         1 3LS      -0.198800
     27 SAK          0.0110     0.4930    -0.0040 ss         1 3LS       0.264200
     28 SAN          3.8180    -1.3740     0.4570 ss         1 3LS      -0.198800
     29 SAQ          7.7890     0.2710    -0.2540 ss         1 3LS      -0.055800
     30 CBC          3.2340     0.6230    -1.0590 cd         1 3LS      -0.012300
     31 CBD          4.6490     0.5550    -0.9830 cd         1 3LS      -0.135500
     32 CBE          6.9780    -1.9920     0.6180 cd         1 3LS      -0.194000
     33 CBF          8.3860    -1.9930     0.7600 cd         1 3LS      -0.174000
     34 CBJ         -2.1480     2.9330     1.0090 c          1 3LS       0.941600
     35 OBG         10.6300     0.7120    -0.1620 o          1 3LS      -0.839550
     36 OBK         -1.9630     3.9780     1.6620 o          1 3LS      -0.822800
     37 OBM          1.9750     3.9720    -1.6780 o          1 3LS      -0.822800
     38 HAW         -8.9290    -2.8290    -1.1470 ha         1 3LS       0.132000
     39 HAX         -6.3270    -2.8290    -0.8840 ha         1 3LS       0.123000
     40 HAY         -5.2720     1.2470     1.5170 ha         1 3LS       0.142500
     41 HBA         -1.2820    -2.8730     0.1950 ha         1 3LS       0.116000
     42 HBB          1.2990    -2.8760    -0.1900 ha         1 3LS       0.116000
     43 HBH         -3.1070     1.9620     2.7060 hc         1 3LS       0.030700
     44 HBI         -1.5660     1.2760     2.2500 hc         1 3LS       0.030700
     45 HBK          1.5890     1.2730    -2.2540 hc         1 3LS       0.030700
     46 HBJ          3.1310     1.9550    -2.7090 hc         1 3LS       0.030700
     47 HBD          5.2930     1.2470    -1.5120 ha         1 3LS       0.142500
     48 HBE          6.3470    -2.8260     0.8970 ha         1 3LS       0.123000
     49 HBF          8.9480    -2.8220     1.1660 ha         1 3LS       0.132000
     50 CBI          2.5250     1.6700    -1.8460 c3         1 3LS      -0.183100
     51 CAC        -10.3960    -0.4350    -0.2800 c          1 3LS       0.950200
@<TRIPOS>BOND
     1     1    34 1   
     2     2     3 1   
     3     2    13 2   
     4     2    25 1   
     5     3    14 2   
     6     3    26 1   
     7     4     5 1   
     8     4    15 2   
     9     4    26 1   
    10     5    16 2   
    11     5    27 1   
    12     6     7 1   
    13     6    17 2   
    14     6    27 1   
    15     7    28 1   
    16     7    30 2   
    17     8    21 1   
    18     8    28 1   
    19     8    31 2   
    20     9    10 1   
    21     9    29 1   
    22     9    33 2   
    23    10    23 1   
    24    10    35 1   
    25    11    19 1   
    26    12    13 1   
    27    12    20 2   
    28    12    38 1   
    29    13    39 1   
    30    14    15 1   
    31    14    40 1   
    32    15    18 1   
    33    16    17 1   
    34    16    41 1   
    35    17    42 1   
    36    18    34 1   
    37    18    43 1   
    38    18    44 1   
    39    19    37 1   
    40    19    50 1   
    41    20    25 1   
    42    20    51 1   
    43    21    29 1   
    44    21    32 2   
    45    22    51 1   
    46    24    51 1   
    47    30    31 1   
    48    30    50 1   
    49    31    47 1   
    50    32    33 1   
    51    32    48 1   
    52    33    49 1   
    53    34    36 1   
    54    45    50 1   
    55    46    50 1   
@<TRIPOS>SUBSTRUCTURE
     1 3LS         1 TEMP              0 ****  ****    0 ROOT
