@<TRIPOS>MOLECULE
3LS
   51    55     1     0     0
SMALL
No Charge or Current Charge


@<TRIPOS>ATOM
      1 OAA         -1.6460     2.8470    -1.7990 o          1 3LS      -0.717500
      2 CAF         -6.5690    -0.9550     0.2960 cc         1 3LS      -0.145500
      3 CAG         -5.1950    -0.5280     0.2470 cc         1 3LS      -0.139000
      4 CAI         -2.7010    -0.2060     0.1490 cc         1 3LS      -0.107500
      5 CAJ         -1.2590    -0.4000     0.0750 cc         1 3LS      -0.193500
      6 CAL          1.2800    -0.3980    -0.0690 cc         1 3LS      -0.193500
      7 CAM          2.7210    -0.2040    -0.1440 cc         1 3LS      -0.107500
      8 CAO          5.2160    -0.5230    -0.2390 cc         1 3LS      -0.139000
      9 CAR          9.0770    -1.2580    -0.3710 cc         1 3LS      -0.258600
     10 CAS         10.5510    -1.1230    -0.4290 c          1 3LS       0.739600
     11 OAU          1.6620     2.8660     1.7750 o          1 3LS      -0.717500
     12 CAW         -8.3550    -2.4540     0.3540 cd         1 3LS      -0.156000
     13 CAX         -6.9450    -2.2760     0.3020 cd         1 3LS      -0.176000
     14 CAY         -4.8110     0.7860     0.2420 cd         1 3LS      -0.117500
     15 CAZ         -3.3980     1.0020     0.1900 cd         1 3LS      -0.012300
     16 CBA         -0.6980    -1.6580     0.0480 cd         1 3LS      -0.182000
     17 CBB          0.7210    -1.6570    -0.0310 cd         1 3LS      -0.182000
     18 CBH         -2.8760     2.4290     0.1920 c3         1 3LS      -0.183100
     19 CBL          2.7350     3.0030     1.2090 c          1 3LS       0.731000
     20 CAD         -9.0550    -1.2670     0.3870 cc         1 3LS      -0.258600
     21 CAP          6.5910    -0.9480    -0.2830 cc         1 3LS      -0.145500
     22 OAB        -11.2120    -2.1470     0.4650 o          1 3LS      -0.734250
     23 OAT         11.2360    -2.1350    -0.4400 o          1 3LS      -0.734250
     24 OAV        -11.0150    -0.0130     0.4700 o          1 3LS      -0.734250
     25 SAE         -7.9700     0.1200     0.3540 ss         1 3LS       0.234000
     26 SAH         -3.8050    -1.5900     0.1910 ss         1 3LS       0.091000
     27 SAK          0.0100     0.8380    -0.0030 ss         1 3LS       0.554000
     28 SAN          3.8280    -1.5860    -0.1740 ss         1 3LS       0.091000
     29 SAQ          7.9900     0.1280    -0.3510 ss         1 3LS       0.234000
     30 CBC          3.4170     1.0050    -0.1970 cd         1 3LS      -0.012300
     31 CBD          4.8300     0.7900    -0.2470 cd         1 3LS      -0.117500
     32 CBE          6.9690    -2.2690    -0.2770 cd         1 3LS      -0.176000
     33 CBF          8.3780    -2.4460    -0.3270 cd         1 3LS      -0.156000
     34 CBJ         -2.7190     2.9880    -1.2340 c          1 3LS       0.731000
     35 OBG         11.0350    -0.0020    -0.4640 o          1 3LS      -0.734250
     36 OBK         -3.7100     3.4540    -1.7780 o          1 3LS      -0.717500
     37 OBM          3.7250     3.4750     1.7490 o          1 3LS      -0.717500
     38 HAW         -8.8290    -3.4310     0.3660 ha         1 3LS       0.114000
     39 HAX         -6.2460    -3.1060     0.2710 ha         1 3LS       0.105000
     40 HAY         -5.5190     1.6060     0.2740 ha         1 3LS       0.124500
     41 HBA         -1.2660    -2.5810     0.0840 ha         1 3LS       0.098000
     42 HBB          1.2900    -2.5790    -0.0570 ha         1 3LS       0.098000
     43 HBH         -3.6380     3.0210     0.7110 hc         1 3LS       0.030700
     44 HBI         -1.9290     2.4580     0.7350 hc         1 3LS       0.030700
     45 HBK          1.9460     2.4540    -0.7550 hc         1 3LS       0.030700
     46 HBJ          3.6540     3.0200    -0.7370 hc         1 3LS       0.030700
     47 HBD          5.5370     1.6120    -0.2860 ha         1 3LS       0.124500
     48 HBE          6.2710    -3.0990    -0.2390 ha         1 3LS       0.105000
     49 HBF          8.8550    -3.4220    -0.3300 ha         1 3LS       0.114000
     50 CBI          2.8920     2.4310    -0.2120 c3         1 3LS      -0.183100
     51 CAC        -10.5290    -1.1340     0.4440 c          1 3LS       0.739600
@<TRIPOS>BOND
     1     1    34 1   
     2     2     3 1   
     3     2    13 2   
     4     2    25 1   
     5     3    14 2   
     6     3    26 1   
     7     4     5 1   
     8     4    15 2   
     9     4    26 1   
    10     5    16 2   
    11     5    27 1   
    12     6     7 1   
    13     6    17 2   
    14     6    27 1   
    15     7    28 1   
    16     7    30 2   
    17     8    21 1   
    18     8    28 1   
    19     8    31 2   
    20     9    10 1   
    21     9    29 1   
    22     9    33 2   
    23    10    23 1   
    24    10    35 1   
    25    11    19 1   
    26    12    13 1   
    27    12    20 2   
    28    12    38 1   
    29    13    39 1   
    30    14    15 1   
    31    14    40 1   
    32    15    18 1   
    33    16    17 1   
    34    16    41 1   
    35    17    42 1   
    36    18    34 1   
    37    18    43 1   
    38    18    44 1   
    39    19    37 1   
    40    19    50 1   
    41    20    25 1   
    42    20    51 1   
    43    21    29 1   
    44    21    32 2   
    45    22    51 1   
    46    24    51 1   
    47    30    31 1   
    48    30    50 1   
    49    31    47 1   
    50    32    33 1   
    51    32    48 1   
    52    33    49 1   
    53    34    36 1   
    54    45    50 1   
    55    46    50 1   
@<TRIPOS>SUBSTRUCTURE
     1 3LS         1 TEMP              0 ****  ****    0 ROOT
