@<TRIPOS>MOLECULE
3LT
   65    65     1     0     0
SMALL
No Charge or Current Charge


@<TRIPOS>ATOM
      1 CAA          4.5550     1.3570     0.5790 c6         1 3LT       0.376300
      2 CAJ          3.4210     0.3570     0.1590 c6         1 3LT       0.054700
      3 CAI          3.8870    -1.1020     0.5120 c6         1 3LT       0.168300
      4 CAG          5.3230    -1.3820    -0.0320 c6         1 3LT       0.137300
      5 CAD          6.3110    -0.2790     0.4370 c6         1 3LT       0.157300
      6 CAE          7.7510    -0.4720    -0.1440 c3         1 3LT       0.169600
      7 CAN          0.0890     1.9500     1.3160 c3         1 3LT      -0.180100
      8 CAP          1.6530    -2.2650     0.4110 c3         1 3LT       0.109300
      9 CAR          0.6780    -1.6180    -0.6210 c          1 3LT       0.579100
     10 CAQ          1.3670    -3.7730     0.5570 c3         1 3LT      -0.098100
     11 OAB          4.3080     2.6650     0.1090 oh         1 3LT      -0.615000
     12 OAO          3.0370    -2.1650    -0.0060 os         1 3LT      -0.427000
     13 OAH          5.7510    -2.7030     0.3560 oh         1 3LT      -0.715000
     14 OAC          5.8090     1.0060     0.0010 os         1 3LT      -0.470000
     15 OAF          8.6600     0.5870     0.2170 oh         1 3LT      -0.707000
     16 OAM          1.2220     2.0090    -0.8080 o          1 3LT      -0.573100
     17 OAS          0.9890    -1.3580    -1.7770 o          1 3LT      -0.571100
     18 NAK          2.1550     0.7360     0.8440 ns         1 3LT      -0.509900
     19 NAT         -0.5670    -1.2940    -0.1160 ns         1 3LT      -0.506900
     20 CAU         -1.6510    -0.6340    -0.8770 c3         1 3LT       0.031700
     21 CAW         -2.6970    -0.0180     0.0980 c          1 3LT       0.588100
     22 CAV         -2.3130    -1.6270    -1.8600 c3         1 3LT      -0.109100
     23 OAX         -2.7360    -0.2940     1.2920 o          1 3LT      -0.646100
     24 C           -4.7250     3.0760    -0.2060 c          1 3LT       0.600100
     25 N           -3.5690     0.8820    -0.4770 ns         1 3LT      -0.460900
     26 CA          -4.6700     1.5790     0.2290 c3         1 3LT       0.022700
     27 CB          -6.0340     0.8600     0.0230 c3         1 3LT      -0.064400
     28 CD          -7.4890    -1.1910     0.3410 c          1 3LT       0.718000
     29 CG          -6.0650    -0.6240     0.4790 c3         1 3LT      -0.214400
     30 OE2         -7.8080    -1.6930    -0.7250 o          1 3LT      -0.733000
     31 OE1         -8.2530    -1.0620     1.2850 o          1 3LT      -0.733000
     32 H1           4.6530     1.3740     1.6740 h2         1 3LT       0.005700
     33 H2           3.2840     0.4270    -0.9300 h1         1 3LT       0.128700
     34 H3           3.9160    -1.1960     1.6080 h1         1 3LT       0.036700
     35 H4           5.2720    -1.3260    -1.1300 h1         1 3LT       0.065700
     36 H5           6.3770    -0.2840     1.5360 h1         1 3LT       0.053700
     37 H6           8.1420    -1.4340     0.2150 h1         1 3LT       0.027200
     38 H7           7.6720    -0.5410    -1.2380 h1         1 3LT       0.027200
     39 H8           0.5320     2.5090     2.1480 hc         1 3LT       0.067700
     40 H9          -0.7190     2.5200     0.8450 hc         1 3LT       0.067700
     41 H10         -0.2750     1.0440     1.8120 hc         1 3LT       0.067700
     42 H11          1.5010    -1.7920     1.3890 h1         1 3LT       0.038700
     43 H12          1.4950    -4.2880    -0.4030 hc         1 3LT       0.049033
     44 H13          2.0480    -4.2250     1.2880 hc         1 3LT       0.049033
     45 H14          0.3400    -3.9400     0.9010 hc         1 3LT       0.049033
     46 H15          5.1900     2.9630    -0.1940 ho         1 3LT       0.453000
     47 H16          4.9590    -3.2790     0.2280 ho         1 3LT       0.508000
     48 H17          9.5100     0.4070    -0.2490 ho         1 3LT       0.500000
     49 H18          2.0370     0.4650     1.8130 hn         1 3LT       0.297500
     50 H19         -0.7470    -1.5230     0.8570 hn         1 3LT       0.329500
     51 H20         -1.2180     0.1980    -1.4490 h1         1 3LT       0.089700
     52 H22         -3.1000    -1.1350    -2.4430 hc         1 3LT       0.050367
     53 H23         -1.5770    -2.0310    -2.5660 hc         1 3LT       0.050367
     54 H24         -2.7640    -2.4660    -1.3170 hc         1 3LT       0.050367
     55 H26         -3.4330     1.0860    -1.4610 hn         1 3LT       0.338500
     56 H28         -5.6810     4.8390     0.1890 hn         1 3LT       0.308000
     57 H29         -6.1900     3.4840     1.1780 hn         1 3LT       0.308000
     58 H30         -4.4480     1.5860     1.3040 h1         1 3LT       0.065700
     59 H31         -6.8110     1.4050     0.5740 hc         1 3LT       0.060200
     60 H32         -6.3110     0.9140    -1.0380 hc         1 3LT       0.060200
     61 H33         -5.3790    -1.1650    -0.1840 hc         1 3LT       0.019700
     62 H34         -5.7560    -0.6220     1.5310 hc         1 3LT       0.019700
     63 O           -4.0280     3.5540    -1.0890 o          1 3LT      -0.625100
     64 CAL          1.1970     1.5880     0.3380 c          1 3LT       0.607100
     65 NBH         -5.6120     3.8650     0.4430 nt         1 3LT      -0.606000
@<TRIPOS>BOND
     1     1     2 1   
     2     1    11 1   
     3     1    14 1   
     4     1    32 1   
     5     2     3 1   
     6     2    18 1   
     7     2    33 1   
     8     3     4 1   
     9     3    12 1   
    10     3    34 1   
    11     4     5 1   
    12     4    13 1   
    13     4    35 1   
    14     5     6 1   
    15     5    14 1   
    16     5    36 1   
    17     6    15 1   
    18     6    37 1   
    19     6    38 1   
    20     7    39 1   
    21     7    40 1   
    22     7    41 1   
    23     7    64 1   
    24     8     9 1   
    25     8    10 1   
    26     8    12 1   
    27     8    42 1   
    28     9    17 2   
    29     9    19 1   
    30    10    43 1   
    31    10    44 1   
    32    10    45 1   
    33    11    46 1   
    34    13    47 1   
    35    15    48 1   
    36    16    64 2   
    37    18    49 1   
    38    18    64 1   
    39    19    20 1   
    40    19    50 1   
    41    20    21 1   
    42    20    22 1   
    43    20    51 1   
    44    21    23 2   
    45    21    25 1   
    46    22    52 1   
    47    22    53 1   
    48    22    54 1   
    49    24    26 1   
    50    24    63 2   
    51    24    65 1   
    52    25    26 1   
    53    25    55 1   
    54    26    27 1   
    55    26    58 1   
    56    27    29 1   
    57    27    59 1   
    58    27    60 1   
    59    28    29 1   
    60    28    30 1   
    61    28    31 1   
    62    29    61 1   
    63    29    62 1   
    64    56    65 1   
    65    57    65 1   
@<TRIPOS>SUBSTRUCTURE
     1 3LT         1 TEMP              0 ****  ****    0 ROOT
