@<TRIPOS>MOLECULE
3LT
   65    65     1     0     0
SMALL
abcg2


@<TRIPOS>ATOM
      1 CAA          4.4050     1.5220    -0.0870 c6         1 3LT       0.376300
      2 CAJ          3.3800     0.4280    -0.3990 c6         1 3LT       0.054700
      3 CAI          3.7510    -0.8530     0.3550 c6         1 3LT       0.168300
      4 CAG          5.2140    -1.2270     0.1400 c6         1 3LT       0.137300
      5 CAD          6.1150    -0.0120     0.3910 c6         1 3LT       0.157300
      6 CAE          7.5620    -0.3090     0.0610 c3         1 3LT       0.169600
      7 CAN         -0.0760     1.9520    -0.2940 c3         1 3LT      -0.180100
      8 CAP          1.7740    -2.1920     0.6250 c3         1 3LT       0.109300
      9 CAR          0.5940    -1.8250    -0.2740 c          1 3LT       0.579100
     10 CAQ          1.6980    -3.6730     0.9750 c3         1 3LT      -0.098100
     11 OAB          4.1220     2.6320    -0.8480 oh         1 3LT      -0.615000
     12 OAO          2.9770    -1.9490    -0.0530 os         1 3LT      -0.427000
     13 OAH          5.5330    -2.2730     1.0260 oh         1 3LT      -0.715000
     14 OAC          5.6940     1.0670    -0.4150 os         1 3LT      -0.470000
     15 OAF          8.3440     0.8100     0.4030 oh         1 3LT      -0.707000
     16 OAM          1.3340     1.3580    -2.1330 o          1 3LT      -0.573100
     17 OAS          0.6550    -1.9260    -1.4870 o          1 3LT      -0.571100
     18 NAK          2.0520     0.8550    -0.0450 ns         1 3LT      -0.509900
     19 NAT         -0.5160    -1.4560     0.3840 ns         1 3LT      -0.506900
     20 CAU         -1.7720    -1.2110    -0.2790 c3         1 3LT       0.031700
     21 CAW         -2.6340    -0.3450     0.6290 c          1 3LT       0.588100
     22 CAV         -2.5180    -2.5100    -0.6020 c3         1 3LT      -0.109100
     23 OAX         -2.4540    -0.2960     1.8380 o          1 3LT      -0.646100
     24 C           -3.9950     2.3550     1.2700 c          1 3LT       0.600100
     25 N           -3.6380     0.2900     0.0160 ns         1 3LT      -0.460900
     26 CA          -4.6150     1.0610     0.7410 c3         1 3LT       0.022700
     27 CB          -5.8050     1.3900    -0.1640 c3         1 3LT      -0.064400
     28 CD          -7.7870     0.4250    -1.5080 c          1 3LT       0.718000
     29 CG          -6.5610     0.1510    -0.6160 c3         1 3LT      -0.214400
     30 OE2         -8.0040     1.6030    -1.8500 o          1 3LT      -0.733000
     31 OE1         -8.4640    -0.5770    -1.8200 o          1 3LT      -0.733000
     32 H1           4.3680     1.7500     0.9940 h2         1 3LT       0.005700
     33 H2           3.4010     0.2290    -1.4730 h1         1 3LT       0.128700
     34 H3           3.6150    -0.6690     1.4340 h1         1 3LT       0.036700
     35 H4           5.3400    -1.5380    -0.9070 h1         1 3LT       0.065700
     36 H5           6.0440     0.2590     1.4580 h1         1 3LT       0.053700
     37 H6           7.8660    -1.2000     0.6210 h1         1 3LT       0.027200
     38 H7           7.6430    -0.5550    -1.0070 h1         1 3LT       0.027200
     39 H8           0.0780     3.0230    -0.1490 hc         1 3LT       0.067700
     40 H9          -0.9350     1.8350    -0.9500 hc         1 3LT       0.067700
     41 H10         -0.3120     1.5210     0.6760 hc         1 3LT       0.067700
     42 H11          1.7260    -1.6090     1.5540 h1         1 3LT       0.038700
     43 H12          1.7500    -4.2880     0.0760 hc         1 3LT       0.049033
     44 H13          2.5260    -3.9420     1.6300 hc         1 3LT       0.049033
     45 H14          0.7670    -3.9040     1.4920 hc         1 3LT       0.049033
     46 H15          4.5670     3.3980    -0.4700 ho         1 3LT       0.453000
     47 H16          6.0330    -2.9430     0.5540 ho         1 3LT       0.508000
     48 H17          9.2670     0.5830     0.2570 ho         1 3LT       0.500000
     49 H18          1.8610     0.9970     0.9360 hn         1 3LT       0.297500
     50 H19         -0.5110    -1.3970     1.3920 hn         1 3LT       0.329500
     51 H20         -1.5740    -0.6770    -1.2120 h1         1 3LT       0.089700
     52 H22         -3.4360    -2.3090    -1.1530 hc         1 3LT       0.050367
     53 H23         -1.8930    -3.1560    -1.2160 hc         1 3LT       0.050367
     54 H24         -2.7770    -3.0450     0.3120 hc         1 3LT       0.050367
     55 H26         -3.6710     0.3010    -0.9920 hn         1 3LT       0.338500
     56 H28         -4.2400     3.6680     2.8210 hn         1 3LT       0.308000
     57 H29         -5.2190     2.2590     2.9210 hn         1 3LT       0.308000
     58 H30         -4.9720     0.4640     1.5860 h1         1 3LT       0.065700
     59 H31         -6.4780     2.0500     0.3870 hc         1 3LT       0.060200
     60 H32         -5.4520     1.9620    -1.0260 hc         1 3LT       0.060200
     61 H33         -5.8970    -0.5280    -1.1610 hc         1 3LT       0.019700
     62 H34         -6.8930    -0.4170     0.2600 hc         1 3LT       0.019700
     63 O           -3.1280     2.9540     0.6550 o          1 3LT      -0.625100
     64 CAL          1.1590     1.3610    -0.9260 c          1 3LT       0.607100
     65 NBH         -4.5250     2.7880     2.4220 nt         1 3LT      -0.606000
@<TRIPOS>BOND
     1     1     2 1   
     2     1    11 1   
     3     1    14 1   
     4     1    32 1   
     5     2     3 1   
     6     2    18 1   
     7     2    33 1   
     8     3     4 1   
     9     3    12 1   
    10     3    34 1   
    11     4     5 1   
    12     4    13 1   
    13     4    35 1   
    14     5     6 1   
    15     5    14 1   
    16     5    36 1   
    17     6    15 1   
    18     6    37 1   
    19     6    38 1   
    20     7    39 1   
    21     7    40 1   
    22     7    41 1   
    23     7    64 1   
    24     8     9 1   
    25     8    10 1   
    26     8    12 1   
    27     8    42 1   
    28     9    17 2   
    29     9    19 1   
    30    10    43 1   
    31    10    44 1   
    32    10    45 1   
    33    11    46 1   
    34    13    47 1   
    35    15    48 1   
    36    16    64 2   
    37    18    49 1   
    38    18    64 1   
    39    19    20 1   
    40    19    50 1   
    41    20    21 1   
    42    20    22 1   
    43    20    51 1   
    44    21    23 2   
    45    21    25 1   
    46    22    52 1   
    47    22    53 1   
    48    22    54 1   
    49    24    26 1   
    50    24    63 2   
    51    24    65 1   
    52    25    26 1   
    53    25    55 1   
    54    26    27 1   
    55    26    58 1   
    56    27    29 1   
    57    27    59 1   
    58    27    60 1   
    59    28    29 1   
    60    28    30 1   
    61    28    31 1   
    62    29    61 1   
    63    29    62 1   
    64    56    65 1   
    65    57    65 1   
@<TRIPOS>SUBSTRUCTURE
     1 3LT         1 TEMP              0 ****  ****    0 ROOT
