@<TRIPOS>MOLECULE
3LU
   53    55     1     0     0
SMALL
bcc


@<TRIPOS>ATOM
      1 S1           3.6600    -1.6330    -0.5850 s6         1 3LU       1.203800
      2 C1           7.2150     1.4460    -1.5800 ca         1 3LU      -0.149000
      3 C2           7.8070     1.4660    -0.3250 ca         1 3LU      -0.165000
      4 C3           7.0660     1.0790     0.7860 ca         1 3LU      -0.149000
      5 C4           5.1440     0.6540    -0.6120 ca         1 3LU       0.021700
      6 C5           3.7350     0.1860    -0.8030 c3         1 3LU      -0.255600
      7 C6           2.7180     0.9450     0.0540 c          1 3LU       0.716100
      8 C7          -0.9290     0.9750    -0.1130 c6         1 3LU       0.323600
      9 C9          -2.7530    -0.5020    -1.2840 c6         1 3LU       0.061900
     10 C10         -3.6660     0.6000    -0.8140 c2         1 3LU      -0.425400
     11 C11          5.8940     1.0400    -1.7180 ca         1 3LU      -0.099000
     12 N1           1.4430     0.5710    -0.1050 ns         1 3LU      -0.545900
     13 O1           3.8350    -1.8790     0.8530 o          1 3LU      -0.681533
     14 N3          -1.9850     1.7580     0.4230 nu         1 3LU      -0.663000
     15 O2           2.3220    -2.0170    -1.0930 o          1 3LU      -0.681533
     16 S2          -1.3820    -0.8160    -0.1470 ss         1 3LU      -0.324200
     17 O3           4.7540    -2.1540    -1.4190 o          1 3LU      -0.681533
     18 O4           3.0570     1.8890     0.7500 o          1 3LU      -0.640100
     19 C12          5.7470     0.6750     0.6450 ca         1 3LU      -0.099000
     20 O7          -3.7100     3.6360     1.1130 o          1 3LU      -0.811300
     21 O8          -5.4390     2.2710     0.7950 o          1 3LU      -0.811300
     22 C13          0.3830     1.2030     0.6360 c3         1 3LU      -0.039300
     23 C14          0.2850     0.7500     2.1210 c          1 3LU       0.921600
     24 C15         -3.2850     1.5750     0.0490 ce         1 3LU       0.157800
     25 H1           7.7810     1.7430    -2.4540 ha         1 3LU       0.101000
     26 H2           8.8360     1.7790    -0.2100 ha         1 3LU       0.093000
     27 H3           7.5200     1.0910     1.7690 ha         1 3LU       0.101000
     28 H4           3.4440     0.3370    -1.8490 h1         1 3LU       0.080700
     29 H5          -0.7780     1.2390    -1.1650 h2         1 3LU       0.054700
     30 H6          -3.3070    -1.4440    -1.3470 h1         1 3LU       0.026700
     31 H7          -2.3610    -0.3160    -2.2890 h1         1 3LU       0.026700
     32 H9           5.4410     1.0240    -2.7020 ha         1 3LU       0.143500
     33 H10          1.2670    -0.3350    -0.5290 hn         1 3LU       0.352500
     34 H11          5.1890     0.3730     1.5200 ha         1 3LU       0.143500
     35 H14          0.5540     2.2840     0.6210 h1         1 3LU       0.071700
     36 H15         -4.9500     0.3620    -2.5000 h1         1 3LU       0.073200
     37 N2          -5.8210    -0.6240    -0.9060 na         1 3LU       0.074900
     38 H17         -5.6120     1.4310    -1.2620 h1         1 3LU       0.073200
     39 C19         -5.9620    -0.7780     0.4170 ca         1 3LU      -0.013800
     40 C17         -6.6880    -1.8330     0.9250 ca         1 3LU      -0.169000
     41 C20         -7.2710    -2.7400     0.0540 ca         1 3LU      -0.056000
     42 C21         -7.1180    -2.5580    -1.3120 ca         1 3LU      -0.169000
     43 C22         -6.3820    -1.4850    -1.7660 ca         1 3LU      -0.013800
     44 H16         -5.4970    -0.0190     1.0310 h4         1 3LU       0.221000
     45 H18         -6.7880    -1.9340     1.9950 ha         1 3LU       0.163500
     46 H19         -7.8400    -3.5760     0.4340 ha         1 3LU       0.146000
     47 H20         -7.5540    -3.2390    -2.0270 ha         1 3LU       0.163500
     48 H21         -6.2290    -1.2920    -2.8170 h4         1 3LU       0.221000
     49 H22         -1.8180     2.1080     1.3600 hn         1 3LU       0.509800
     50 O5          -0.4600     1.4660     2.8300 o          1 3LU      -0.811300
     51 C8          -4.2380     2.5940     0.6990 c          1 3LU       0.914800
     52 O6           0.9230    -0.2510     2.4580 o          1 3LU      -0.811300
     53 C16         -5.0240     0.5330    -1.4250 c3         1 3LU       0.105500
@<TRIPOS>BOND
     1     1     6 1   
     2     1    13 1   
     3     1    15 1   
     4     1    17 1   
     5     2     3 ar  
     6     2    11 ar  
     7     2    25 1   
     8     3     4 ar  
     9     3    26 1   
    10     4    19 ar  
    11     4    27 1   
    12     5     6 1   
    13     5    11 ar  
    14     5    19 ar  
    15     6     7 1   
    16     6    28 1   
    17     7    12 1   
    18     7    18 2   
    19     8    14 1   
    20     8    16 1   
    21     8    22 1   
    22     8    29 1   
    23     9    10 1   
    24     9    16 1   
    25     9    30 1   
    26     9    31 1   
    27    10    24 2   
    28    10    53 1   
    29    11    32 1   
    30    12    22 1   
    31    12    33 1   
    32    14    24 1   
    33    14    49 1   
    34    19    34 1   
    35    20    51 1   
    36    21    51 1   
    37    22    23 1   
    38    22    35 1   
    39    23    50 1   
    40    23    52 1   
    41    24    51 1   
    42    36    53 1   
    43    37    39 1   
    44    37    43 2   
    45    37    53 1   
    46    38    53 1   
    47    39    40 ar  
    48    39    44 1   
    49    40    41 ar  
    50    40    45 1   
    51    41    42 ar  
    52    41    46 1   
    53    42    43 ar  
    54    42    47 1   
    55    43    48 1   
@<TRIPOS>SUBSTRUCTURE
     1 3LU         1 TEMP              0 ****  ****    0 ROOT
