@<TRIPOS>MOLECULE
3LU
   53    55     1     0     0
SMALL
No Charge or Current Charge


@<TRIPOS>ATOM
      1 S1           5.2490    -0.0460     1.8740 s6         1 3LU       1.314600
      2 C1           4.5030    -0.3970    -3.0890 ca         1 3LU      -0.131000
      3 C2           4.8120     0.9340    -3.4100 ca         1 3LU      -0.147000
      4 C3           4.8330     1.9080    -2.4000 ca         1 3LU      -0.131000
      5 C4           4.2370     0.2160    -0.7350 ca         1 3LU       0.021700
      6 C5           3.9110    -0.2090     0.7020 c3         1 3LU      -0.366400
      7 C6           2.6810     0.4520     1.2700 c          1 3LU       0.649100
      8 C7          -0.5260     0.5280     1.2380 c6         1 3LU       0.371500
      9 C9          -1.8370     0.4670    -1.1160 c6         1 3LU       0.109800
     10 C10         -3.0080     1.0820    -0.3610 c2         1 3LU      -0.425400
     11 C11          4.2160    -0.7530    -1.7590 ca         1 3LU      -0.081000
     12 N1           1.7670    -0.4180     1.8150 ns         1 3LU      -0.478900
     13 O1           5.5130     1.3960     1.9640 o          1 3LU      -0.681533
     14 N3          -1.8300     0.9090     1.7690 nu         1 3LU      -0.718200
     15 O2           4.7050    -0.6430     3.1010 o          1 3LU      -0.681533
     16 S2          -0.7890    -0.6570    -0.1310 ss         1 3LU      -0.420000
     17 O3           6.3370    -0.8230     1.2620 o          1 3LU      -0.681533
     18 O4           2.4620     1.6540     1.2120 o          1 3LU      -0.640100
     19 C12          4.5460     1.5530    -1.0700 ca         1 3LU      -0.081000
     20 O7          -3.9030     1.9630     3.0920 o          1 3LU      -0.706000
     21 O8          -5.2020     2.1550     1.4020 o          1 3LU      -0.706000
     22 C13          0.4200    -0.0450     2.3350 c3         1 3LU      -0.039300
     23 C14         -0.2190    -1.2230     3.1190 c          1 3LU       0.711000
     24 C15         -2.9780     1.2580     1.0010 ce         1 3LU       0.157800
     25 H1           4.4840    -1.1540    -3.8690 ha         1 3LU       0.083000
     26 H2           5.0330     1.2090    -4.4380 ha         1 3LU       0.075000
     27 H3           5.0700     2.9400    -2.6460 ha         1 3LU       0.083000
     28 H4           3.7250    -1.2860     0.6960 h1         1 3LU       0.080700
     29 H5          -0.0430     1.4080     0.7870 h2         1 3LU       0.054700
     30 H6          -2.1940    -0.1060    -1.9840 h1         1 3LU       0.026700
     31 H7          -1.1880     1.2690    -1.4960 h1         1 3LU       0.026700
     32 H9           3.9780    -1.7880    -1.5260 ha         1 3LU       0.125500
     33 H10          2.0170    -1.4000     1.8220 hn         1 3LU       0.352500
     34 H11          4.5620     2.3220    -0.3030 ha         1 3LU       0.125500
     35 H14          0.5750     0.7570     3.0670 h1         1 3LU       0.071700
     36 H15         -3.7200     1.8670    -2.2290 h1         1 3LU       0.073200
     37 N2          -5.0000     0.2920    -1.6880 na         1 3LU       0.096300
     38 H17         -4.7920     2.2360    -0.9110 h1         1 3LU       0.073200
     39 C19         -5.5800    -0.5200    -0.7070 ca         1 3LU      -0.046500
     40 C17         -6.3820    -1.6230    -1.0570 ca         1 3LU      -0.151000
     41 C20         -6.6100    -1.9200    -2.4120 ca         1 3LU      -0.038000
     42 C21         -6.0320    -1.1090    -3.4040 ca         1 3LU      -0.151000
     43 C22         -5.2320    -0.0100    -3.0350 ca         1 3LU       0.004200
     44 H16         -5.3850    -0.2710     0.3360 h4         1 3LU       0.203000
     45 H18         -6.8230    -2.2450    -0.2810 ha         1 3LU       0.145500
     46 H19         -7.2290    -2.7720    -2.6900 ha         1 3LU       0.128000
     47 H20         -6.2030    -1.3300    -4.4560 ha         1 3LU       0.145500
     48 H21         -4.7750     0.6320    -3.7890 h4         1 3LU       0.203000
     49 H22         -1.9400     1.0140     2.7820 hn         1 3LU       0.565000
     50 O5          -0.9270    -0.9410     4.0760 o          1 3LU      -0.706000
     51 C8          -4.1200     1.8490     1.8880 c          1 3LU       0.704200
     52 O6           0.1540    -2.3650     2.8790 o          1 3LU      -0.706000
     53 C16         -4.1520     1.4450    -1.3120 c3         1 3LU       0.134800
@<TRIPOS>BOND
     1     1     6 1   
     2     1    13 1   
     3     1    15 1   
     4     1    17 1   
     5     2     3 ar  
     6     2    11 ar  
     7     2    25 1   
     8     3     4 ar  
     9     3    26 1   
    10     4    19 ar  
    11     4    27 1   
    12     5     6 1   
    13     5    11 ar  
    14     5    19 ar  
    15     6     7 1   
    16     6    28 1   
    17     7    12 1   
    18     7    18 2   
    19     8    14 1   
    20     8    16 1   
    21     8    22 1   
    22     8    29 1   
    23     9    10 1   
    24     9    16 1   
    25     9    30 1   
    26     9    31 1   
    27    10    24 2   
    28    10    53 1   
    29    11    32 1   
    30    12    22 1   
    31    12    33 1   
    32    14    24 1   
    33    14    49 1   
    34    19    34 1   
    35    20    51 1   
    36    21    51 1   
    37    22    23 1   
    38    22    35 1   
    39    23    50 1   
    40    23    52 1   
    41    24    51 1   
    42    36    53 1   
    43    37    39 1   
    44    37    43 2   
    45    37    53 1   
    46    38    53 1   
    47    39    40 ar  
    48    39    44 1   
    49    40    41 ar  
    50    40    45 1   
    51    41    42 ar  
    52    41    46 1   
    53    42    43 ar  
    54    42    47 1   
    55    43    48 1   
@<TRIPOS>SUBSTRUCTURE
     1 3LU         1 TEMP              0 ****  ****    0 ROOT
