@<TRIPOS>MOLECULE
3LV
   56    57     1     0     0
SMALL
abcg2


@<TRIPOS>ATOM
      1 C1          -3.0180     2.9950     1.0720 c          1 3LV       0.712600
      2 O1          -2.9810     4.2380     1.1590 o          1 3LV      -0.717500
      3 C2          -1.6780     2.2840     0.9220 ca         1 3LV      -0.130600
      4 O2          -4.0340     2.2750     1.0940 o          1 3LV      -0.717500
      5 C3          -1.6140     0.9020     0.8090 ca         1 3LV      -0.063000
      6 C4          -0.4110     0.2170     0.6590 ca         1 3LV      -0.109300
      7 C5           0.7740     0.9600     0.6210 ca         1 3LV      -0.083000
      8 N5           2.0410     0.3310     0.4640 n          1 3LV      -0.244400
      9 C6           0.7230     2.3450     0.7670 ca         1 3LV      -0.145000
     10 C7          -0.4860     3.0020     0.9050 ca         1 3LV      -0.082000
     11 C8          -0.4330    -1.2930     0.6190 c3         1 3LV       0.222100
     12 N8          -1.6260    -1.8240    -0.0080 n3         1 3LV      -0.719600
     13 C9          -1.5840    -1.6520    -1.4500 c3         1 3LV       0.178800
     14 C10         -2.9500    -1.7320    -2.1180 c3         1 3LV      -0.083400
     15 C11         -2.8550    -1.4990    -3.6190 c3         1 3LV      -0.086600
     16 C12         -1.8870    -3.1930     0.4050 c3         1 3LV       0.178800
     17 C13         -2.5090    -3.2830     1.7930 c3         1 3LV      -0.083400
     18 C14         -2.8030    -4.7210     2.1950 c3         1 3LV      -0.086600
     19 C15          2.5530    -0.4710     1.4350 c          1 3LV       0.562000
     20 O15          2.0530    -0.6410     2.5310 o          1 3LV      -0.541000
     21 C16          3.8060    -1.1130     0.8970 c5         1 3LV      -0.178400
     22 C17          4.1700    -0.2580    -0.3080 c5         1 3LV      -0.075400
     23 C18          2.8360     0.3460    -0.7790 c5         1 3LV       0.137400
     24 C19          2.1240    -0.5520    -1.7950 c3         1 3LV       0.156600
     25 O19          2.8320    -0.5890    -3.0050 oh         1 3LV      -0.647500
     26 C20          3.0270     1.7810    -1.2790 c3         1 3LV       0.156600
     27 O20          4.0330     1.8140    -2.2600 oh         1 3LV      -0.647500
     28 H3          -2.5270     0.3230     0.8240 ha         1 3LV       0.149000
     29 H6           1.6420     2.9150     0.7840 ha         1 3LV       0.090000
     30 H7          -0.5010     4.0790     1.0080 ha         1 3LV       0.130000
     31 H8           0.4790    -1.6850     0.1450 h1         1 3LV       0.031700
     32 H8A         -0.3920    -1.6420     1.6530 h1         1 3LV       0.031700
     33 H9          -1.1730    -0.6590    -1.6560 h1         1 3LV       0.020450
     34 H9A         -0.8940    -2.3720    -1.9250 h1         1 3LV       0.020450
     35 H10         -3.4110    -2.7060    -1.9340 hc         1 3LV       0.054450
     36 H10A        -3.6070    -0.9880    -1.6610 hc         1 3LV       0.054450
     37 H11         -3.8360    -1.5580    -4.0920 hc         1 3LV       0.024867
     38 H11A        -2.4400    -0.5150    -3.8420 hc         1 3LV       0.024867
     39 H11B        -2.2140    -2.2430    -4.0960 hc         1 3LV       0.024867
     40 H12         -2.5860    -3.6440    -0.3020 h1         1 3LV       0.020450
     41 H12A        -0.9750    -3.8120     0.3640 h1         1 3LV       0.020450
     42 H13         -1.8500    -2.8280     2.5380 hc         1 3LV       0.054450
     43 H13A        -3.4280    -2.6930     1.7980 hc         1 3LV       0.054450
     44 H14         -3.5020    -5.1910     1.5010 hc         1 3LV       0.024867
     45 H14A        -1.8930    -5.3240     2.2050 hc         1 3LV       0.024867
     46 H14B        -3.2430    -4.7720     3.1910 hc         1 3LV       0.024867
     47 H16          4.5850    -1.1570     1.6580 hc         1 3LV       0.065700
     48 H16A         3.5680    -2.1440     0.6190 hc         1 3LV       0.065700
     49 H17          4.8460     0.5410    -0.0010 hc         1 3LV       0.060200
     50 H17A         4.6650    -0.8170    -1.0990 hc         1 3LV       0.060200
     51 H19          2.0360    -1.5580    -1.3600 h1         1 3LV       0.033700
     52 H19A         1.1010    -0.1760    -1.9400 h1         1 3LV       0.033700
     53 HO19         2.3970    -1.2270    -3.5780 ho         1 3LV       0.434000
     54 H20          2.0770     2.1790    -1.6620 h1         1 3LV       0.033700
     55 H20A         3.3110     2.3920    -0.4140 h1         1 3LV       0.033700
     56 HO20         4.3320     2.7240    -2.3340 ho         1 3LV       0.434000
@<TRIPOS>BOND
     1     1     2 1   
     2     1     3 1   
     3     1     4 1   
     4     3     5 ar  
     5     3    10 ar  
     6     5     6 ar  
     7     5    28 1   
     8     6     7 ar  
     9     6    11 1   
    10     7     8 1   
    11     7     9 ar  
    12     8    19 1   
    13     8    23 1   
    14     9    10 ar  
    15     9    29 1   
    16    10    30 1   
    17    11    12 1   
    18    11    31 1   
    19    11    32 1   
    20    12    13 1   
    21    12    16 1   
    22    13    14 1   
    23    13    33 1   
    24    13    34 1   
    25    14    15 1   
    26    14    35 1   
    27    14    36 1   
    28    15    37 1   
    29    15    38 1   
    30    15    39 1   
    31    16    17 1   
    32    16    40 1   
    33    16    41 1   
    34    17    18 1   
    35    17    42 1   
    36    17    43 1   
    37    18    44 1   
    38    18    45 1   
    39    18    46 1   
    40    19    20 2   
    41    19    21 1   
    42    21    22 1   
    43    21    47 1   
    44    21    48 1   
    45    22    23 1   
    46    22    49 1   
    47    22    50 1   
    48    23    24 1   
    49    23    26 1   
    50    24    25 1   
    51    24    51 1   
    52    24    52 1   
    53    25    53 1   
    54    26    27 1   
    55    26    54 1   
    56    26    55 1   
    57    27    56 1   
@<TRIPOS>SUBSTRUCTURE
     1 3LV         1 TEMP              0 ****  ****    0 ROOT
