@<TRIPOS>MOLECULE
3LV
   56    57     1     0     0
SMALL
No Charge or Current Charge


@<TRIPOS>ATOM
      1 C1          -2.9770     3.2940     1.3400 c          1 3LV       0.712600
      2 O1          -2.9390     4.5150     1.2620 o          1 3LV      -0.717500
      3 C2          -1.7010     2.5090     1.0790 ca         1 3LV      -0.130600
      4 O2          -3.9970     2.6810     1.6190 o          1 3LV      -0.717500
      5 C3          -1.7000     1.0980     1.1080 ca         1 3LV      -0.063000
      6 C4          -0.5250     0.3550     0.8680 ca         1 3LV      -0.109300
      7 C5           0.6810     1.0310     0.5430 ca         1 3LV      -0.083000
      8 N5           1.9280     0.3110     0.4390 n          1 3LV      -0.244400
      9 C6           0.6950     2.4390     0.5980 ca         1 3LV      -0.145000
     10 C7          -0.4800     3.1700     0.8350 ca         1 3LV      -0.082000
     11 C8          -0.6180    -1.1770     0.9460 c3         1 3LV       0.222100
     12 N8          -1.6940    -1.7630     0.0990 n3         1 3LV      -0.719600
     13 C9          -1.4970    -1.4460    -1.3420 c3         1 3LV       0.178800
     14 C10         -2.7180    -1.7180    -2.2510 c3         1 3LV      -0.083400
     15 C11         -2.5240    -1.1840    -3.6840 c3         1 3LV      -0.086600
     16 C12         -1.9070    -3.2160     0.3490 c3         1 3LV       0.178800
     17 C13         -2.3380    -3.5840     1.7880 c3         1 3LV      -0.083400
     18 C14         -2.7570    -5.0610     1.9280 c3         1 3LV      -0.086600
     19 C15          2.5190    -0.3300     1.5400 c          1 3LV       0.562000
     20 O15          2.2250    -0.1360     2.7130 o          1 3LV      -0.541000
     21 C16          3.7190    -1.0800     0.9760 c5         1 3LV      -0.178400
     22 C17          4.1370    -0.1720    -0.2040 c5         1 3LV      -0.075400
     23 C18          2.7400     0.2340    -0.8170 c5         1 3LV       0.137400
     24 C19          2.0960    -0.8660    -1.7390 c3         1 3LV       0.156600
     25 O19          2.9920    -1.3800    -2.7430 oh         1 3LV      -0.647500
     26 C20          2.8160     1.5920    -1.5920 c3         1 3LV       0.156600
     27 O20          3.7620     1.5650    -2.6690 oh         1 3LV      -0.647500
     28 H3          -2.6230     0.5630     1.3220 ha         1 3LV       0.149000
     29 H6           1.6240     2.9870     0.4800 ha         1 3LV       0.090000
     30 H7          -0.4310     4.2570     0.8480 ha         1 3LV       0.130000
     31 H8           0.3390    -1.6370     0.6740 h1         1 3LV       0.031700
     32 H8A         -0.7900    -1.4160     2.0020 h1         1 3LV       0.031700
     33 H9          -1.2530    -0.3820    -1.4560 h1         1 3LV       0.020450
     34 H9A         -0.6390    -2.0110    -1.7320 h1         1 3LV       0.020450
     35 H10         -2.9160    -2.7940    -2.3080 hc         1 3LV       0.054450
     36 H10A        -3.6050    -1.2460    -1.8110 hc         1 3LV       0.054450
     37 H11         -3.4090    -1.3990    -4.2950 hc         1 3LV       0.024867
     38 H11A        -2.3670    -0.0990    -3.6760 hc         1 3LV       0.024867
     39 H11B        -1.6560    -1.6570    -4.1580 hc         1 3LV       0.024867
     40 H12         -2.6960    -3.5910    -0.3140 h1         1 3LV       0.020450
     41 H12A        -0.9930    -3.7740     0.1020 h1         1 3LV       0.020450
     42 H13         -1.5170    -3.3940     2.4880 hc         1 3LV       0.054450
     43 H13A        -3.1780    -2.9450     2.0870 hc         1 3LV       0.054450
     44 H14         -3.6090    -5.2860     1.2750 hc         1 3LV       0.024867
     45 H14A        -1.9280    -5.7260     1.6580 hc         1 3LV       0.024867
     46 H14B        -3.0500    -5.2790     2.9620 hc         1 3LV       0.024867
     47 H16          4.4870    -1.2520     1.7370 hc         1 3LV       0.065700
     48 H16A         3.3730    -2.0400     0.5770 hc         1 3LV       0.065700
     49 H17          4.6780     0.7090     0.1630 hc         1 3LV       0.060200
     50 H17A         4.7980    -0.6760    -0.9180 hc         1 3LV       0.060200
     51 H19          1.7590    -1.6980    -1.1090 h1         1 3LV       0.033700
     52 H19A         1.1990    -0.4450    -2.2110 h1         1 3LV       0.033700
     53 HO19         2.4780    -2.0080    -3.2960 ho         1 3LV       0.434000
     54 H20          1.8160     1.8500    -1.9670 h1         1 3LV       0.033700
     55 H20A         3.1200     2.3730    -0.8850 h1         1 3LV       0.033700
     56 HO20         3.7260     2.4440    -3.1070 ho         1 3LV       0.434000
@<TRIPOS>BOND
     1     1     2 1   
     2     1     3 1   
     3     1     4 1   
     4     3     5 ar  
     5     3    10 ar  
     6     5     6 ar  
     7     5    28 1   
     8     6     7 ar  
     9     6    11 1   
    10     7     8 1   
    11     7     9 ar  
    12     8    19 1   
    13     8    23 1   
    14     9    10 ar  
    15     9    29 1   
    16    10    30 1   
    17    11    12 1   
    18    11    31 1   
    19    11    32 1   
    20    12    13 1   
    21    12    16 1   
    22    13    14 1   
    23    13    33 1   
    24    13    34 1   
    25    14    15 1   
    26    14    35 1   
    27    14    36 1   
    28    15    37 1   
    29    15    38 1   
    30    15    39 1   
    31    16    17 1   
    32    16    40 1   
    33    16    41 1   
    34    17    18 1   
    35    17    42 1   
    36    17    43 1   
    37    18    44 1   
    38    18    45 1   
    39    18    46 1   
    40    19    20 2   
    41    19    21 1   
    42    21    22 1   
    43    21    47 1   
    44    21    48 1   
    45    22    23 1   
    46    22    49 1   
    47    22    50 1   
    48    23    24 1   
    49    23    26 1   
    50    24    25 1   
    51    24    51 1   
    52    24    52 1   
    53    25    53 1   
    54    26    27 1   
    55    26    54 1   
    56    26    55 1   
    57    27    56 1   
@<TRIPOS>SUBSTRUCTURE
     1 3LV         1 TEMP              0 ****  ****    0 ROOT
