@<TRIPOS>MOLECULE
3LW
   39    42     1     0     0
SMALL
No Charge or Current Charge


@<TRIPOS>ATOM
      1 S           -2.2760    -0.6710    -0.8400 ss         1 3LW       0.296000
      2 Br          -5.3280    -0.3770     0.0230 br         1 3LW       0.031900
      3 C1          -3.5530     0.2540    -0.0620 cc         1 3LW      -0.133900
      4 C2          -3.0880     1.4420     0.4390 cd         1 3LW      -0.100000
      5 N2           1.2030     0.2620     0.3580 ny         1 3LW      -0.827000
      6 C3          -1.6970     1.6330     0.2160 cd         1 3LW      -0.061000
      7 C5           0.3270     0.4550    -0.8540 c3         1 3LW       0.190900
      8 C10          2.7180     0.0890     0.1780 c6         1 3LW       0.127000
      9 C12         -1.1020     0.5890    -0.4520 cc         1 3LW      -0.353300
     10 C61          3.3550    -0.0860     1.5840 c6         1 3LW      -0.090400
     11 C62          3.3180     1.3470    -0.5120 c6         1 3LW      -0.090400
     12 C63          3.0090    -1.1730    -0.6840 c6         1 3LW      -0.090400
     13 C71          4.8950    -0.2650     1.4430 c6         1 3LW      -0.053033
     14 C72          4.8580     1.1710    -0.6610 c6         1 3LW      -0.053033
     15 C73          4.5480    -1.3540    -0.8340 c6         1 3LW      -0.053033
     16 C81          5.4960     0.9920     0.7480 c6         1 3LW      -0.080733
     17 C82          5.1500    -0.0930    -1.5230 c6         1 3LW      -0.080733
     18 C83          5.1880    -1.5240     0.5760 c6         1 3LW      -0.080733
     19 H2          -3.7160     2.1630     0.9530 ha         1 3LW       0.172000
     20 H3          -1.1620     2.5210     0.5430 ha         1 3LW       0.146000
     21 H5           0.6530     1.3520    -1.3900 hx         1 3LW       0.105700
     22 H61          3.1360     0.7870     2.2150 hc         1 3LW       0.058700
     23 H81          5.3180     1.8870     1.3610 hc         1 3LW       0.064200
     24 H62          2.8670     1.5000    -1.5010 hc         1 3LW       0.058700
     25 H82          4.7260     0.0280    -2.5300 hc         1 3LW       0.064200
     26 HN2          1.0440     1.0560     1.0070 hn         1 3LW       0.494000
     27 H63          2.5660    -2.0640    -0.2200 hc         1 3LW       0.058700
     28 H83          6.2720    -1.6780     0.4840 hc         1 3LW       0.064200
     29 H5A          0.4540    -0.4010    -1.5240 hx         1 3LW       0.105700
     30 H61A         2.9220    -0.9560     2.0960 hc         1 3LW       0.058700
     31 H62A         3.0950     2.2490     0.0760 hc         1 3LW       0.058700
     32 H63A         2.5510    -1.0780    -1.6780 hc         1 3LW       0.058700
     33 H71          5.3460    -0.3880     2.4380 hc         1 3LW       0.082033
     34 H72          5.2850     2.0590    -1.1500 hc         1 3LW       0.082033
     35 H73          4.7580    -2.2440    -1.4440 hc         1 3LW       0.082033
     36 H81A         6.5870     0.8920     0.6600 hc         1 3LW       0.064200
     37 H82A         6.2340    -0.2160    -1.6590 hc         1 3LW       0.064200
     38 H83A         4.7900    -2.4240     1.0660 hc         1 3LW       0.064200
     39 HN2A         0.8460    -0.5510     0.8950 hn         1 3LW       0.494000
@<TRIPOS>BOND
     1     1     3 1   
     2     1     9 1   
     3     2     3 1   
     4     3     4 2   
     5     4     6 1   
     6     4    19 1   
     7     5     7 1   
     8     5     8 1   
     9     5    26 1   
    10     5    39 1   
    11     6     9 2   
    12     6    20 1   
    13     7     9 1   
    14     7    21 1   
    15     7    29 1   
    16     8    10 1   
    17     8    11 1   
    18     8    12 1   
    19    10    13 1   
    20    10    22 1   
    21    10    30 1   
    22    11    14 1   
    23    11    24 1   
    24    11    31 1   
    25    12    15 1   
    26    12    27 1   
    27    12    32 1   
    28    13    16 1   
    29    13    18 1   
    30    13    33 1   
    31    14    16 1   
    32    14    17 1   
    33    14    34 1   
    34    15    17 1   
    35    15    18 1   
    36    15    35 1   
    37    16    23 1   
    38    16    36 1   
    39    17    25 1   
    40    17    37 1   
    41    18    28 1   
    42    18    38 1   
@<TRIPOS>SUBSTRUCTURE
     1 3LW         1 TEMP              0 ****  ****    0 ROOT
