@<TRIPOS>MOLECULE
3LW
   39    42     1     0     0
SMALL
bcc


@<TRIPOS>ATOM
      1 S           -2.0670    -0.7900    -0.1890 ss         1 3LW       0.006200
      2 BR          -5.0030    -0.5330     0.7560 br         1 3LW       0.031900
      3 C1          -3.3740     0.2160     0.2780 cc         1 3LW       0.011000
      4 C2          -3.0610     1.5400     0.2320 cd         1 3LW      -0.118000
      5 N2           1.2290     0.2190     0.3580 ny         1 3LW      -0.773000
      6 C3          -1.7200     1.7430    -0.1830 cd         1 3LW      -0.079000
      7 C5           0.3680     0.4320    -0.8490 c3         1 3LW       0.219100
      8 C10          2.7200     0.0690     0.1560 c6         1 3LW       0.155200
      9 C12         -1.0540     0.5830    -0.4460 cc         1 3LW      -0.208400
     10 C61          3.3130    -0.1750     1.5440 c6         1 3LW      -0.090400
     11 C62          3.3030     1.3490    -0.4380 c6         1 3LW      -0.090400
     12 C63          3.0110    -1.1200    -0.7560 c6         1 3LW      -0.090400
     13 C71          4.8290    -0.3430     1.4210 c6         1 3LW      -0.053033
     14 C72          4.8230     1.1810    -0.5550 c6         1 3LW      -0.053033
     15 C73          4.5320    -1.2840    -0.8700 c6         1 3LW      -0.053033
     16 C81          5.4270     0.9330     0.8270 c6         1 3LW      -0.080733
     17 C82          5.1300    -0.0090    -1.4680 c6         1 3LW      -0.080733
     18 C83          5.1320    -1.5350     0.5130 c6         1 3LW      -0.080733
     19 H2          -3.7490     2.3340     0.4780 ha         1 3LW       0.190000
     20 H3          -1.2680     2.7200    -0.2900 ha         1 3LW       0.164000
     21 H5           0.7130     1.3360    -1.3440 hx         1 3LW       0.105700
     22 H61          3.0820     0.6670     2.2050 hc         1 3LW       0.058700
     23 H81          5.2320     1.7830     1.4870 hc         1 3LW       0.064200
     24 H62          2.8850     1.5480    -1.4290 hc         1 3LW       0.058700
     25 H82          4.7240     0.1670    -2.4690 hc         1 3LW       0.064200
     26 HN2          1.0690     0.9950     1.0060 hn         1 3LW       0.438800
     27 H63          2.5540    -2.0320    -0.3580 hc         1 3LW       0.058700
     28 H83          6.2130    -1.6800     0.4310 hc         1 3LW       0.064200
     29 H5A          0.5200    -0.4100    -1.5200 hx         1 3LW       0.105700
     30 H61A         2.8680    -1.0700     1.9930 hc         1 3LW       0.058700
     31 H62A         3.0600     2.2060     0.1980 hc         1 3LW       0.058700
     32 H63A         2.5960    -0.9580    -1.7550 hc         1 3LW       0.058700
     33 H71          5.2400    -0.5190     2.4180 hc         1 3LW       0.082033
     34 H72          5.2390     2.0950    -0.9850 hc         1 3LW       0.082033
     35 H73          4.7380    -2.1330    -1.5260 hc         1 3LW       0.082033
     36 H81A         6.5140     0.8370     0.7480 hc         1 3LW       0.064200
     37 H82A         6.2120    -0.1200    -1.5830 hc         1 3LW       0.064200
     38 H83A         4.7230    -2.4540     0.9450 hc         1 3LW       0.064200
     39 HN2A         0.8930    -0.6060     0.8600 hn         1 3LW       0.438800
@<TRIPOS>BOND
     1     1     3 1   
     2     1     9 1   
     3     2     3 1   
     4     3     4 2   
     5     4     6 1   
     6     4    19 1   
     7     5     7 1   
     8     5     8 1   
     9     5    26 1   
    10     5    39 1   
    11     6     9 2   
    12     6    20 1   
    13     7     9 1   
    14     7    21 1   
    15     7    29 1   
    16     8    10 1   
    17     8    11 1   
    18     8    12 1   
    19    10    13 1   
    20    10    22 1   
    21    10    30 1   
    22    11    14 1   
    23    11    24 1   
    24    11    31 1   
    25    12    15 1   
    26    12    27 1   
    27    12    32 1   
    28    13    16 1   
    29    13    18 1   
    30    13    33 1   
    31    14    16 1   
    32    14    17 1   
    33    14    34 1   
    34    15    17 1   
    35    15    18 1   
    36    15    35 1   
    37    16    23 1   
    38    16    36 1   
    39    17    25 1   
    40    17    37 1   
    41    18    28 1   
    42    18    38 1   
@<TRIPOS>SUBSTRUCTURE
     1 3LW         1 TEMP              0 ****  ****    0 ROOT
