@<TRIPOS>MOLECULE
3LX
   40    39     1     0     0
SMALL
No Charge or Current Charge


@<TRIPOS>ATOM
      1 C1          -6.4880     0.1870     0.5140 cs         1 3LX       0.279200
      2 S1          -7.2770     1.0030    -0.7190 s          1 3LX      -0.338400
      3 C2          -5.2210    -0.6230     0.3020 c3         1 3LX      -0.143400
      4 C3          -3.9420     0.2390     0.4030 c3         1 3LX      -0.069400
      5 C4          -2.6470    -0.5770     0.1970 c3         1 3LX      -0.074400
      6 C5          -1.3690     0.2840     0.2960 c3         1 3LX      -0.074400
      7 C6          -0.0740    -0.5310     0.0900 c3         1 3LX      -0.074400
      8 C7           1.2050     0.3300     0.1890 c3         1 3LX      -0.074400
      9 C8           2.5000    -0.4850    -0.0170 c3         1 3LX      -0.074400
     10 C9           3.7780     0.3760     0.0830 c3         1 3LX      -0.074400
     11 C10          5.0740    -0.4400    -0.1230 c3         1 3LX      -0.074400
     12 C11          6.3520     0.4210    -0.0240 c3         1 3LX      -0.075400
     13 C12          7.6480    -0.3940    -0.2300 c3         1 3LX      -0.074400
     14 C13          8.9230     0.4650    -0.1310 c3         1 3LX      -0.088100
     15 H1          -6.8610     0.2270     1.5410 h4         1 3LX       0.030200
     16 H2          -5.1810    -1.4250     1.0500 hc         1 3LX       0.068700
     17 H3          -5.2600    -1.1080    -0.6800 hc         1 3LX       0.068700
     18 H4          -3.9880     1.0390    -0.3460 hc         1 3LX       0.045200
     19 H5          -3.9110     0.7230     1.3870 hc         1 3LX       0.045200
     20 H6          -2.6020    -1.3770     0.9460 hc         1 3LX       0.040700
     21 H7          -2.6790    -1.0610    -0.7870 hc         1 3LX       0.040700
     22 H8          -1.4140     1.0840    -0.4530 hc         1 3LX       0.038700
     23 H9          -1.3370     0.7690     1.2800 hc         1 3LX       0.038700
     24 H10         -0.0280    -1.3310     0.8400 hc         1 3LX       0.038200
     25 H11         -0.1060    -1.0150    -0.8940 hc         1 3LX       0.038200
     26 H12          1.1590     1.1300    -0.5600 hc         1 3LX       0.038200
     27 H13          1.2370     0.8150     1.1730 hc         1 3LX       0.038200
     28 H14          2.5450    -1.2850     0.7330 hc         1 3LX       0.037200
     29 H15          2.4680    -0.9700    -1.0010 hc         1 3LX       0.037200
     30 H16          3.7330     1.1760    -0.6670 hc         1 3LX       0.037200
     31 H17          3.8100     0.8600     1.0670 hc         1 3LX       0.037200
     32 H18          5.1190    -1.2400     0.6260 hc         1 3LX       0.037200
     33 H19          5.0420    -0.9240    -1.1070 hc         1 3LX       0.037200
     34 H20          6.3070     1.2210    -0.7730 hc         1 3LX       0.037200
     35 H21          6.3840     0.9060     0.9600 hc         1 3LX       0.037200
     36 H22          7.6970    -1.1940     0.5190 hc         1 3LX       0.036700
     37 H23          7.6200    -0.8780    -1.2140 hc         1 3LX       0.036700
     38 H24          8.9200     1.2540    -0.8920 hc         1 3LX       0.031367
     39 H25          8.9980     0.9360     0.8570 hc         1 3LX       0.031367
     40 H26          9.8140    -0.1550    -0.2830 hc         1 3LX       0.031367
@<TRIPOS>BOND
     1     1     2 2   
     2     1     3 1   
     3     1    15 1   
     4     3     4 1   
     5     3    16 1   
     6     3    17 1   
     7     4     5 1   
     8     4    18 1   
     9     4    19 1   
    10     5     6 1   
    11     5    20 1   
    12     5    21 1   
    13     6     7 1   
    14     6    22 1   
    15     6    23 1   
    16     7     8 1   
    17     7    24 1   
    18     7    25 1   
    19     8     9 1   
    20     8    26 1   
    21     8    27 1   
    22     9    10 1   
    23     9    28 1   
    24     9    29 1   
    25    10    11 1   
    26    10    30 1   
    27    10    31 1   
    28    11    12 1   
    29    11    32 1   
    30    11    33 1   
    31    12    13 1   
    32    12    34 1   
    33    12    35 1   
    34    13    14 1   
    35    13    36 1   
    36    13    37 1   
    37    14    38 1   
    38    14    39 1   
    39    14    40 1   
@<TRIPOS>SUBSTRUCTURE
     1 3LX         1 TEMP              0 ****  ****    0 ROOT
