@<TRIPOS>MOLECULE
3LX
   40    39     1     0     0
SMALL
abcg2


@<TRIPOS>ATOM
      1 C1          -6.3500     0.1780     0.5720 cs         1 3LX       0.279200
      2 S1          -7.5560     0.4900    -0.4550 s          1 3LX      -0.338400
      3 C2          -5.1310    -0.6150     0.2760 c3         1 3LX      -0.143400
      4 C3          -3.8710     0.2540     0.3830 c3         1 3LX      -0.069400
      5 C4          -2.5990    -0.5530     0.1640 c3         1 3LX      -0.074400
      6 C5          -1.3370     0.2950     0.2620 c3         1 3LX      -0.074400
      7 C6          -0.0600    -0.5080     0.0510 c3         1 3LX      -0.074400
      8 C7           1.2050     0.3350     0.1550 c3         1 3LX      -0.074400
      9 C8           2.4820    -0.4690    -0.0550 c3         1 3LX      -0.074400
     10 C9           3.7480     0.3690     0.0650 c3         1 3LX      -0.074400
     11 C10          5.0250    -0.4360    -0.1400 c3         1 3LX      -0.074400
     12 C11          6.2920     0.4000    -0.0090 c3         1 3LX      -0.075400
     13 C12          7.5710    -0.4050    -0.2020 c3         1 3LX      -0.074400
     14 C13          8.8290     0.4420    -0.0630 c3         1 3LX      -0.088100
     15 H1          -6.3880     0.5890     1.5820 h4         1 3LX       0.030200
     16 H2          -5.0660    -1.4160     1.0210 hc         1 3LX       0.068700
     17 H3          -5.2010    -1.0750    -0.7110 hc         1 3LX       0.068700
     18 H4          -3.9280     1.0610    -0.3540 hc         1 3LX       0.045200
     19 H5          -3.8400     0.7340     1.3660 hc         1 3LX       0.045200
     20 H6          -2.5530    -1.3630     0.9010 hc         1 3LX       0.040700
     21 H7          -2.6380    -1.0360    -0.8180 hc         1 3LX       0.040700
     22 H8          -1.3840     1.1030    -0.4760 hc         1 3LX       0.038700
     23 H9          -1.3030     0.7820     1.2430 hc         1 3LX       0.038700
     24 H10         -0.0170    -1.3190     0.7860 hc         1 3LX       0.038200
     25 H11         -0.0930    -0.9930    -0.9320 hc         1 3LX       0.038200
     26 H12          1.1620     1.1470    -0.5790 hc         1 3LX       0.038200
     27 H13          1.2370     0.8170     1.1390 hc         1 3LX       0.038200
     28 H14          2.5180    -1.2870     0.6740 hc         1 3LX       0.037200
     29 H15          2.4540    -0.9450    -1.0420 hc         1 3LX       0.037200
     30 H16          3.7140     1.1860    -0.6640 hc         1 3LX       0.037200
     31 H17          3.7740     0.8460     1.0510 hc         1 3LX       0.037200
     32 H18          5.0560    -1.2560     0.5870 hc         1 3LX       0.037200
     33 H19          5.0030    -0.9090    -1.1280 hc         1 3LX       0.037200
     34 H20          6.2660     1.2180    -0.7370 hc         1 3LX       0.037200
     35 H21          6.3110     0.8770     0.9780 hc         1 3LX       0.037200
     36 H22          7.5980    -1.2220     0.5260 hc         1 3LX       0.036700
     37 H23          7.5550    -0.8800    -1.1880 hc         1 3LX       0.036700
     38 H24          8.8520     1.2400    -0.8070 hc         1 3LX       0.031367
     39 H25          8.8790     0.9110     0.9220 hc         1 3LX       0.031367
     40 H26          9.7320    -0.1550    -0.1910 hc         1 3LX       0.031367
@<TRIPOS>BOND
     1     1     2 2   
     2     1     3 1   
     3     1    15 1   
     4     3     4 1   
     5     3    16 1   
     6     3    17 1   
     7     4     5 1   
     8     4    18 1   
     9     4    19 1   
    10     5     6 1   
    11     5    20 1   
    12     5    21 1   
    13     6     7 1   
    14     6    22 1   
    15     6    23 1   
    16     7     8 1   
    17     7    24 1   
    18     7    25 1   
    19     8     9 1   
    20     8    26 1   
    21     8    27 1   
    22     9    10 1   
    23     9    28 1   
    24     9    29 1   
    25    10    11 1   
    26    10    30 1   
    27    10    31 1   
    28    11    12 1   
    29    11    32 1   
    30    11    33 1   
    31    12    13 1   
    32    12    34 1   
    33    12    35 1   
    34    13    14 1   
    35    13    36 1   
    36    13    37 1   
    37    14    38 1   
    38    14    39 1   
    39    14    40 1   
@<TRIPOS>SUBSTRUCTURE
     1 3LX         1 TEMP              0 ****  ****    0 ROOT
