@<TRIPOS>MOLECULE
3LY
  127   126     1     0     0
SMALL
abcg2


@<TRIPOS>ATOM
      1 C2B         -1.5430    18.3510    -9.7510 c3         1 3LY      -0.073400
      2 C3B          4.4200    24.8010    -3.7520 c3         1 3LY      -0.061400
      3 C11         11.7630    25.3500   -11.1270 c3         1 3LY       0.076233
      4 C12         10.6770    23.2500   -10.5400 c3         1 3LY       0.076233
      5 C2I         -6.3550    22.7700   -15.8460 c3         1 3LY      -0.088100
      6 C2H         -6.2190    21.7640   -14.7110 c3         1 3LY      -0.075400
      7 C2G         -4.7950    21.6600   -14.1780 c3         1 3LY      -0.075400
      8 C2F         -4.6500    20.6530   -13.0440 c3         1 3LY      -0.074400
      9 C2E         -3.2270    20.5410   -12.5120 c3         1 3LY      -0.074400
     10 C2D         -3.0870    19.5240   -11.3870 c3         1 3LY      -0.075400
     11 C2C         -1.6640    19.3920   -10.8580 c3         1 3LY      -0.076400
     12 C2A         -0.1460    18.2260    -9.1500 c3         1 3LY      -0.075400
     13 C29          0.9130    17.7490   -10.1410 c3         1 3LY      -0.073400
     14 C28          2.2380    17.3580    -9.4910 c3         1 3LY      -0.072400
     15 C27          2.9540    18.5090    -8.7950 c3         1 3LY      -0.079400
     16 C26          4.2990    18.1050    -8.2020 c3         1 3LY      -0.073400
     17 C25          4.9730    19.2580    -7.4750 c3         1 3LY      -0.076400
     18 C24          6.3150    18.8810    -6.8460 c3         1 3LY      -0.157400
     19 C22          6.8670    20.0620    -6.0820 c          1 3LY       0.597100
     20 O23          6.2970    20.4930    -5.0870 o          1 3LY      -0.594100
     21 N21          7.9810    20.6200    -6.5930 ns         1 3LY      -0.511900
     22 C18          8.5110    21.8970    -6.1590 c3         1 3LY       0.101700
     23 C17          8.0170    22.9530    -7.1480 c3         1 3LY       0.222600
     24 OP4          8.3500    24.2450    -6.6890 os         1 3LY      -0.612400
     25 P            7.6140    25.5860    -7.3020 p5         1 3LY       1.363800
     26 OP3          6.5780    25.1670    -8.2980 o          1 3LY      -0.778500
     27 OP2          7.3260    26.4920    -6.1520 o          1 3LY      -0.778500
     28 OP1          8.8730    26.3070    -8.0930 os         1 3LY      -0.550400
     29 C16          9.3990    25.7330    -9.2670 c3         1 3LY       0.216600
     30 C15         10.7300    25.0880    -8.8960 c3         1 3LY       0.049600
     31 N14         11.4620    24.4050   -10.0160 n4         1 3LY      -0.490000
     32 C13         12.7490    23.8910    -9.4630 c3         1 3LY       0.076233
     33 C31         10.0310    21.7840    -5.9780 c3         1 3LY       0.204500
     34 O32         10.5810    21.5240    -7.2570 oh         1 3LY      -0.699000
     35 C33         10.6610    22.9900    -5.3450 c2         1 3LY      -0.253200
     36 C34         11.0000    23.1160    -4.0640 c2         1 3LY      -0.180200
     37 C35         10.8290    22.1050    -2.9620 c3         1 3LY      -0.046200
     38 C36          9.3770    21.8180    -2.5590 c3         1 3LY      -0.072400
     39 C37          8.5070    23.0550    -2.3730 c3         1 3LY      -0.079400
     40 C38          7.1130    22.6950    -1.8630 c3         1 3LY      -0.074400
     41 C39          6.0520    23.7720    -2.0800 c3         1 3LY      -0.066400
     42 C3A          5.6630    23.9430    -3.5460 c3         1 3LY      -0.088400
     43 C3C          3.9620    24.8870    -5.2070 c3         1 3LY      -0.076400
     44 C3D          3.4910    23.5560    -5.7860 c3         1 3LY      -0.072400
     45 C3E          2.9510    23.6660    -7.2060 c3         1 3LY      -0.083400
     46 C3F          2.4420    22.3280    -7.7310 c3         1 3LY      -0.072400
     47 C3G          1.8520    22.3700    -9.1370 c3         1 3LY      -0.071400
     48 C3H          2.8670    22.7080   -10.2200 c3         1 3LY      -0.089100
     49 H1          -2.2520    18.5980    -8.9550 hc         1 3LY       0.036200
     50 H2          -1.8540    17.3750   -10.1420 hc         1 3LY       0.036200
     51 H3           3.6010    24.4040    -3.1420 hc         1 3LY       0.028200
     52 H4           4.6130    25.8110    -3.3750 hc         1 3LY       0.028200
     53 H5          12.3010    26.2080   -10.7310 hx         1 3LY       0.092033
     54 H6          12.3790    24.8360   -11.8610 hx         1 3LY       0.092033
     55 H7          10.8410    25.6750   -11.6000 hx         1 3LY       0.092033
     56 H8          10.4350    22.5840    -9.7150 hx         1 3LY       0.092033
     57 H9           9.7670    23.6030   -11.0160 hx         1 3LY       0.092033
     58 H10         11.2830    22.7250   -11.2740 hx         1 3LY       0.092033
     59 H11         -7.3810    22.8280   -16.2100 hc         1 3LY       0.031033
     60 H12         -6.0620    23.7700   -15.5230 hc         1 3LY       0.031033
     61 H13         -5.7190    22.4990   -16.6910 hc         1 3LY       0.031033
     62 H14         -6.8920    22.0430   -13.8940 hc         1 3LY       0.036200
     63 H15         -6.5500    20.7790   -15.0530 hc         1 3LY       0.036200
     64 H16         -4.1220    21.3830   -14.9960 hc         1 3LY       0.037200
     65 H17         -4.4640    22.6450   -13.8330 hc         1 3LY       0.037200
     66 H18         -5.3230    20.9300   -12.2260 hc         1 3LY       0.036200
     67 H19         -4.9840    19.6680   -13.3900 hc         1 3LY       0.036200
     68 H20         -2.5530    20.2690   -13.3320 hc         1 3LY       0.037700
     69 H21         -2.8930    21.5230   -12.1580 hc         1 3LY       0.037700
     70 H22         -3.7570    19.7990   -10.5650 hc         1 3LY       0.036200
     71 H23         -3.4300    18.5460   -11.7420 hc         1 3LY       0.036200
     72 H24         -0.9970    19.1360   -11.6860 hc         1 3LY       0.039200
     73 H25         -1.3220    20.3630   -10.4810 hc         1 3LY       0.039200
     74 H26          0.1480    19.1900    -8.7210 hc         1 3LY       0.040700
     75 H27         -0.1850    17.5230    -8.3100 hc         1 3LY       0.040700
     76 H28          0.5200    16.8850   -10.6870 hc         1 3LY       0.037200
     77 H29          1.0970    18.5230   -10.8920 hc         1 3LY       0.037200
     78 H30          2.0610    16.5550    -8.7670 hc         1 3LY       0.034200
     79 H31          2.9000    16.9380   -10.2550 hc         1 3LY       0.034200
     80 H32          3.1030    19.3280    -9.5090 hc         1 3LY       0.045700
     81 H33          2.3230    18.9130    -7.9980 hc         1 3LY       0.045700
     82 H34          4.1560    17.2710    -7.5060 hc         1 3LY       0.033200
     83 H35          4.9540    17.7320    -8.9960 hc         1 3LY       0.033200
     84 H36          4.3050    19.6290    -6.6930 hc         1 3LY       0.057700
     85 H37          5.1220    20.0890    -8.1720 hc         1 3LY       0.057700
     86 H38          6.1730    18.0520    -6.1470 hc         1 3LY       0.053700
     87 H39          7.0080    18.5390    -7.6180 hc         1 3LY       0.053700
     88 H40          8.3650    20.2260    -7.4380 hn         1 3LY       0.307500
     89 H41          8.0780    22.1170    -5.1830 h1         1 3LY       0.114700
     90 H42          6.9330    22.8340    -7.2320 h1         1 3LY       0.021200
     91 H43          8.4360    22.7630    -8.1430 h1         1 3LY       0.021200
     92 H45          9.5430    26.5300    -9.9980 h1         1 3LY       0.041700
     93 H46          8.7100    25.0080    -9.7090 h1         1 3LY       0.041700
     94 H47         10.5770    24.3310    -8.1290 hx         1 3LY       0.105200
     95 H48         11.4070    25.8470    -8.4990 hx         1 3LY       0.105200
     96 H49         13.3370    24.7280    -9.0960 hx         1 3LY       0.092033
     97 H50         12.5350    23.2010    -8.6510 hx         1 3LY       0.092033
     98 H51         13.2910    23.3770   -10.2520 hx         1 3LY       0.092033
     99 H52         10.1850    20.9180    -5.3190 h1         1 3LY       0.044700
    100 H53         11.5100    21.2940    -7.1520 ho         1 3LY       0.431000
    101 H54         10.8590    23.8250    -6.0070 ha         1 3LY       0.171000
    102 H55         11.4420    24.0630    -3.7700 ha         1 3LY       0.173000
    103 H56         11.3010    21.1600    -3.2470 hc         1 3LY       0.037200
    104 H57         11.3740    22.4610    -2.0860 hc         1 3LY       0.037200
    105 H58          8.9080    21.1760    -3.3100 hc         1 3LY       0.038200
    106 H59          9.3870    21.2330    -1.6350 hc         1 3LY       0.038200
    107 H60          8.9840    23.7530    -1.6770 hc         1 3LY       0.049200
    108 H61          8.4380    23.5830    -3.3280 hc         1 3LY       0.049200
    109 H62          6.7760    21.7800    -2.3630 hc         1 3LY       0.035200
    110 H63          7.1780    22.4460    -0.8000 hc         1 3LY       0.035200
    111 H64          5.1570    23.4970    -1.5130 hc         1 3LY       0.031700
    112 H65          6.3910    24.7270    -1.6640 hc         1 3LY       0.031700
    113 H66          6.4910    24.3780    -4.1150 hc         1 3LY       0.054200
    114 H67          5.4990    22.9490    -3.9710 hc         1 3LY       0.054200
    115 H68          4.7750    25.2870    -5.8200 hc         1 3LY       0.050700
    116 H69          3.1430    25.6090    -5.2800 hc         1 3LY       0.050700
    117 H70          2.7150    23.1390    -5.1340 hc         1 3LY       0.030700
    118 H71          4.3110    22.8310    -5.7820 hc         1 3LY       0.030700
    119 H72          3.7420    24.0550    -7.8550 hc         1 3LY       0.050700
    120 H73          2.1390    24.4010    -7.2380 hc         1 3LY       0.050700
    121 H74          1.6830    21.9460    -7.0400 hc         1 3LY       0.028700
    122 H75          3.2610    21.6020    -7.7070 hc         1 3LY       0.028700
    123 H76          1.4060    21.3950    -9.3590 hc         1 3LY       0.029200
    124 H77          1.0280    23.0900    -9.1650 hc         1 3LY       0.029200
    125 H78          2.4150    22.6740   -11.2120 hc         1 3LY       0.030700
    126 H79          3.2870    23.7060   -10.0890 hc         1 3LY       0.030700
    127 H80          3.6980    21.9980   -10.2110 hc         1 3LY       0.030700
@<TRIPOS>BOND
     1     1    11 1   
     2     1    12 1   
     3     1    49 1   
     4     1    50 1   
     5     2    42 1   
     6     2    43 1   
     7     2    51 1   
     8     2    52 1   
     9     3    31 1   
    10     3    53 1   
    11     3    54 1   
    12     3    55 1   
    13     4    31 1   
    14     4    56 1   
    15     4    57 1   
    16     4    58 1   
    17     5     6 1   
    18     5    59 1   
    19     5    60 1   
    20     5    61 1   
    21     6     7 1   
    22     6    62 1   
    23     6    63 1   
    24     7     8 1   
    25     7    64 1   
    26     7    65 1   
    27     8     9 1   
    28     8    66 1   
    29     8    67 1   
    30     9    10 1   
    31     9    68 1   
    32     9    69 1   
    33    10    11 1   
    34    10    70 1   
    35    10    71 1   
    36    11    72 1   
    37    11    73 1   
    38    12    13 1   
    39    12    74 1   
    40    12    75 1   
    41    13    14 1   
    42    13    76 1   
    43    13    77 1   
    44    14    15 1   
    45    14    78 1   
    46    14    79 1   
    47    15    16 1   
    48    15    80 1   
    49    15    81 1   
    50    16    17 1   
    51    16    82 1   
    52    16    83 1   
    53    17    18 1   
    54    17    84 1   
    55    17    85 1   
    56    18    19 1   
    57    18    86 1   
    58    18    87 1   
    59    19    20 2   
    60    19    21 1   
    61    21    22 1   
    62    21    88 1   
    63    22    23 1   
    64    22    33 1   
    65    22    89 1   
    66    23    24 1   
    67    23    90 1   
    68    23    91 1   
    69    24    25 1   
    70    25    26 1   
    71    25    27 1   
    72    25    28 1   
    73    28    29 1   
    74    29    30 1   
    75    29    92 1   
    76    29    93 1   
    77    30    31 1   
    78    30    94 1   
    79    30    95 1   
    80    31    32 1   
    81    32    96 1   
    82    32    97 1   
    83    32    98 1   
    84    33    34 1   
    85    33    35 1   
    86    33    99 1   
    87    34   100 1   
    88    35    36 2   
    89    35   101 1   
    90    36    37 1   
    91    36   102 1   
    92    37    38 1   
    93    37   103 1   
    94    37   104 1   
    95    38    39 1   
    96    38   105 1   
    97    38   106 1   
    98    39    40 1   
    99    39   107 1   
   100    39   108 1   
   101    40    41 1   
   102    40   109 1   
   103    40   110 1   
   104    41    42 1   
   105    41   111 1   
   106    41   112 1   
   107    42   113 1   
   108    42   114 1   
   109    43    44 1   
   110    43   115 1   
   111    43   116 1   
   112    44    45 1   
   113    44   117 1   
   114    44   118 1   
   115    45    46 1   
   116    45   119 1   
   117    45   120 1   
   118    46    47 1   
   119    46   121 1   
   120    46   122 1   
   121    47    48 1   
   122    47   123 1   
   123    47   124 1   
   124    48   125 1   
   125    48   126 1   
   126    48   127 1   
@<TRIPOS>SUBSTRUCTURE
     1 3LY         1 TEMP              0 ****  ****    0 ROOT
