@<TRIPOS>MOLECULE
3LY
  127   126     1     0     0
SMALL
No Charge or Current Charge


@<TRIPOS>ATOM
      1 C2B         -1.1870    17.8690   -10.1220 c3         1 3LY      -0.073400
      2 C3B          4.1110    24.6510    -3.8700 c3         1 3LY      -0.061400
      3 C11         10.9000    24.6380   -11.6340 c3         1 3LY       0.076233
      4 C12          9.7800    22.6720   -10.5480 c3         1 3LY       0.076233
      5 C2I         -5.3180    24.1900   -15.1210 c3         1 3LY      -0.088100
      6 C2H         -5.2920    22.8240   -14.4080 c3         1 3LY      -0.075400
      7 C2G         -3.9510    22.5380   -13.6980 c3         1 3LY      -0.075400
      8 C2F         -3.9250    21.1690   -12.9830 c3         1 3LY      -0.074400
      9 C2E         -2.5840    20.8850   -12.2720 c3         1 3LY      -0.074400
     10 C2D         -2.5570    19.5160   -11.5570 c3         1 3LY      -0.075400
     11 C2C         -1.2150    19.2360   -10.8460 c3         1 3LY      -0.076400
     12 C2A          0.1280    17.5820    -9.3570 c3         1 3LY      -0.075400
     13 C29          1.3590    17.3540   -10.2700 c3         1 3LY      -0.073400
     14 C28          2.6640    17.0170    -9.5100 c3         1 3LY      -0.072400
     15 C27          3.2240    18.1940    -8.6800 c3         1 3LY      -0.079400
     16 C26          4.5770    17.8870    -8.0010 c3         1 3LY      -0.073400
     17 C25          5.1130    19.0970    -7.2070 c3         1 3LY      -0.076400
     18 C24          6.4790    18.8540    -6.5280 c3         1 3LY      -0.157400
     19 C22          6.9400    20.1300    -5.8190 c          1 3LY       0.597100
     20 O23          6.4750    20.4900    -4.7490 o          1 3LY      -0.594100
     21 N21          7.9130    20.8390    -6.4800 ns         1 3LY      -0.511900
     22 C18          8.3930    22.1800    -6.0960 c3         1 3LY       0.101700
     23 C17          7.8170    23.2370    -7.0790 c3         1 3LY       0.222600
     24 OP4          7.9800    24.5550    -6.5400 os         1 3LY      -0.612400
     25 P            7.3540    25.8280    -7.3050 p5         1 3LY       1.363800
     26 OP3          6.1620    25.4730    -8.1260 o          1 3LY      -0.778500
     27 OP2          7.0510    26.9150    -6.3300 o          1 3LY      -0.778500
     28 OP1          8.6120    26.2490    -8.2250 os         1 3LY      -0.550400
     29 C16          8.9290    25.5450    -9.4300 c3         1 3LY       0.216600
     30 C15         10.2330    24.7530    -9.1940 c3         1 3LY       0.049600
     31 N14         10.7470    23.8430   -10.3280 n4         1 3LY      -0.490000
     32 C13         12.1170    23.2830    -9.9310 c3         1 3LY       0.076233
     33 C31          9.9480    22.1720    -5.9460 c3         1 3LY       0.204500
     34 O32         10.5750    21.8410    -7.1870 oh         1 3LY      -0.699000
     35 C33         10.5330    23.4780    -5.4530 c2         1 3LY      -0.253200
     36 C34         10.9400    23.7820    -4.2070 c2         1 3LY      -0.180200
     37 C35         10.9390    22.8870    -2.9780 c3         1 3LY      -0.046200
     38 C36          9.5410    22.4220    -2.5020 c3         1 3LY      -0.072400
     39 C37          8.4700    23.5360    -2.4400 c3         1 3LY      -0.079400
     40 C38          7.1260    23.0280    -1.8650 c3         1 3LY      -0.074400
     41 C39          5.9110    23.9420    -2.1540 c3         1 3LY      -0.066400
     42 C3A          5.4230    23.8730    -3.6210 c3         1 3LY      -0.088400
     43 C3C          3.6040    24.5940    -5.3330 c3         1 3LY      -0.076400
     44 C3D          3.1890    23.1830    -5.8160 c3         1 3LY      -0.072400
     45 C3E          2.5990    23.1770    -7.2440 c3         1 3LY      -0.083400
     46 C3F          2.1790    21.7630    -7.7090 c3         1 3LY      -0.072400
     47 C3G          1.5450    21.7040    -9.1180 c3         1 3LY      -0.071400
     48 C3H          2.5010    22.0880   -10.2650 c3         1 3LY      -0.089100
     49 H1          -2.0160    17.8360    -9.4050 hc         1 3LY       0.036200
     50 H2          -1.3670    17.0660   -10.8470 hc         1 3LY       0.036200
     51 H3           3.3270    24.2660    -3.2050 hc         1 3LY       0.028200
     52 H4           4.2670    25.7010    -3.5960 hc         1 3LY       0.028200
     53 H5          11.5830    25.4740   -11.4680 hx         1 3LY       0.092033
     54 H6          11.3040    23.9820   -12.4080 hx         1 3LY       0.092033
     55 H7           9.9240    25.0140   -11.9470 hx         1 3LY       0.092033
     56 H8           9.6870    22.1060    -9.6180 hx         1 3LY       0.092033
     57 H9           8.8030    23.0570   -10.8450 hx         1 3LY       0.092033
     58 H10         10.1730    22.0240   -11.3330 hx         1 3LY       0.092033
     59 H11         -6.2870    24.3470   -15.6100 hc         1 3LY       0.031033
     60 H12         -5.1590    25.0050   -14.4050 hc         1 3LY       0.031033
     61 H13         -4.5350    24.2430   -15.8870 hc         1 3LY       0.031033
     62 H14         -6.1070    22.7890   -13.6750 hc         1 3LY       0.036200
     63 H15         -5.4890    22.0340   -15.1440 hc         1 3LY       0.036200
     64 H16         -3.1380    22.5760   -14.4340 hc         1 3LY       0.037200
     65 H17         -3.7560    23.3310   -12.9650 hc         1 3LY       0.037200
     66 H18         -4.7370    21.1320   -12.2470 hc         1 3LY       0.036200
     67 H19         -4.1190    20.3770   -13.7160 hc         1 3LY       0.036200
     68 H20         -1.7710    20.9220   -13.0090 hc         1 3LY       0.037700
     69 H21         -2.3890    21.6780   -11.5400 hc         1 3LY       0.037700
     70 H22         -3.3700    19.4780   -10.8210 hc         1 3LY       0.036200
     71 H23         -2.7490    18.7220   -12.2900 hc         1 3LY       0.036200
     72 H24         -0.4080    19.2800   -11.5870 hc         1 3LY       0.039200
     73 H25         -1.0260    20.0330   -10.1170 hc         1 3LY       0.039200
     74 H26          0.3190    18.4110    -8.6650 hc         1 3LY       0.040700
     75 H27         -0.0190    16.6880    -8.7390 hc         1 3LY       0.040700
     76 H28          1.1370    16.5300   -10.9590 hc         1 3LY       0.037200
     77 H29          1.5350    18.2410   -10.8900 hc         1 3LY       0.037200
     78 H30          2.4940    16.1530    -8.8550 hc         1 3LY       0.034200
     79 H31          3.4220    16.7120   -10.2420 hc         1 3LY       0.034200
     80 H32          3.3460    19.0640    -9.3370 hc         1 3LY       0.045700
     81 H33          2.5000    18.4760    -7.9070 hc         1 3LY       0.045700
     82 H34          4.4600    17.0300    -7.3260 hc         1 3LY       0.033200
     83 H35          5.3100    17.6010    -8.7650 hc         1 3LY       0.033200
     84 H36          4.3780    19.3780    -6.4420 hc         1 3LY       0.057700
     85 H37          5.2060    19.9530    -7.8870 hc         1 3LY       0.057700
     86 H38          6.3680    18.0500    -5.7910 hc         1 3LY       0.053700
     87 H39          7.2050    18.5650    -7.2980 hc         1 3LY       0.053700
     88 H40          8.2780    20.4350    -7.3340 hn         1 3LY       0.307500
     89 H41          7.9810    22.4200    -5.1090 h1         1 3LY       0.114700
     90 H42          6.7480    23.0260    -7.2180 h1         1 3LY       0.021200
     91 H43          8.3030    23.1390    -8.0560 h1         1 3LY       0.021200
     92 H45          9.0740    26.2540   -10.2540 h1         1 3LY       0.041700
     93 H46          8.1280    24.8520    -9.7180 h1         1 3LY       0.041700
     94 H47         10.1010    24.1260    -8.3110 hx         1 3LY       0.105200
     95 H48         11.0200    25.4750    -8.9700 hx         1 3LY       0.105200
     96 H49         12.8130    24.1100    -9.7760 hx         1 3LY       0.092033
     97 H50         12.0170    22.7090    -9.0090 hx         1 3LY       0.092033
     98 H51         12.4860    22.6360   -10.7290 hx         1 3LY       0.092033
     99 H52         10.1920    21.3900    -5.2150 h1         1 3LY       0.044700
    100 H53         11.5150    21.6620    -6.9740 ho         1 3LY       0.431000
    101 H54         10.5980    24.2430    -6.2260 ha         1 3LY       0.171000
    102 H55         11.3300    24.7830    -4.0080 ha         1 3LY       0.173000
    103 H56         11.5600    22.0020    -3.1620 hc         1 3LY       0.037200
    104 H57         11.4200    23.4210    -2.1500 hc         1 3LY       0.037200
    105 H58          9.1830    21.6240    -3.1620 hc         1 3LY       0.038200
    106 H59          9.6470    21.9690    -1.5080 hc         1 3LY       0.038200
    107 H60          8.8350    24.3660    -1.8230 hc         1 3LY       0.049200
    108 H61          8.3160    23.9400    -3.4460 hc         1 3LY       0.049200
    109 H62          6.9110    22.0270    -2.2590 hc         1 3LY       0.035200
    110 H63          7.2340    22.9140    -0.7800 hc         1 3LY       0.035200
    111 H64          5.0880    23.6340    -1.4970 hc         1 3LY       0.031700
    112 H65          6.1560    24.9780    -1.8890 hc         1 3LY       0.031700
    113 H66          6.1990    24.2620    -4.2900 hc         1 3LY       0.054200
    114 H67          5.2720    22.8200    -3.8840 hc         1 3LY       0.054200
    115 H68          4.3800    24.9920    -5.9970 hc         1 3LY       0.050700
    116 H69          2.7420    25.2660    -5.4240 hc         1 3LY       0.050700
    117 H70          2.4510    22.7670    -5.1190 hc         1 3LY       0.030700
    118 H71          4.0600    22.5170    -5.7980 hc         1 3LY       0.030700
    119 H72          3.3460    23.5860    -7.9350 hc         1 3LY       0.050700
    120 H73          1.7280    23.8430    -7.2800 hc         1 3LY       0.050700
    121 H74          1.4590    21.3530    -6.9890 hc         1 3LY       0.028700
    122 H75          3.0530    21.1050    -7.6850 hc         1 3LY       0.028700
    123 H76          1.1920    20.6820    -9.2940 hc         1 3LY       0.029200
    124 H77          0.6600    22.3520    -9.1500 hc         1 3LY       0.029200
    125 H78          2.0120    21.9300   -11.2340 hc         1 3LY       0.030700
    126 H79          2.7930    23.1420   -10.2010 hc         1 3LY       0.030700
    127 H80          3.4090    21.4730   -10.2370 hc         1 3LY       0.030700
@<TRIPOS>BOND
     1     1    11 1   
     2     1    12 1   
     3     1    49 1   
     4     1    50 1   
     5     2    42 1   
     6     2    43 1   
     7     2    51 1   
     8     2    52 1   
     9     3    31 1   
    10     3    53 1   
    11     3    54 1   
    12     3    55 1   
    13     4    31 1   
    14     4    56 1   
    15     4    57 1   
    16     4    58 1   
    17     5     6 1   
    18     5    59 1   
    19     5    60 1   
    20     5    61 1   
    21     6     7 1   
    22     6    62 1   
    23     6    63 1   
    24     7     8 1   
    25     7    64 1   
    26     7    65 1   
    27     8     9 1   
    28     8    66 1   
    29     8    67 1   
    30     9    10 1   
    31     9    68 1   
    32     9    69 1   
    33    10    11 1   
    34    10    70 1   
    35    10    71 1   
    36    11    72 1   
    37    11    73 1   
    38    12    13 1   
    39    12    74 1   
    40    12    75 1   
    41    13    14 1   
    42    13    76 1   
    43    13    77 1   
    44    14    15 1   
    45    14    78 1   
    46    14    79 1   
    47    15    16 1   
    48    15    80 1   
    49    15    81 1   
    50    16    17 1   
    51    16    82 1   
    52    16    83 1   
    53    17    18 1   
    54    17    84 1   
    55    17    85 1   
    56    18    19 1   
    57    18    86 1   
    58    18    87 1   
    59    19    20 2   
    60    19    21 1   
    61    21    22 1   
    62    21    88 1   
    63    22    23 1   
    64    22    33 1   
    65    22    89 1   
    66    23    24 1   
    67    23    90 1   
    68    23    91 1   
    69    24    25 1   
    70    25    26 1   
    71    25    27 1   
    72    25    28 1   
    73    28    29 1   
    74    29    30 1   
    75    29    92 1   
    76    29    93 1   
    77    30    31 1   
    78    30    94 1   
    79    30    95 1   
    80    31    32 1   
    81    32    96 1   
    82    32    97 1   
    83    32    98 1   
    84    33    34 1   
    85    33    35 1   
    86    33    99 1   
    87    34   100 1   
    88    35    36 2   
    89    35   101 1   
    90    36    37 1   
    91    36   102 1   
    92    37    38 1   
    93    37   103 1   
    94    37   104 1   
    95    38    39 1   
    96    38   105 1   
    97    38   106 1   
    98    39    40 1   
    99    39   107 1   
   100    39   108 1   
   101    40    41 1   
   102    40   109 1   
   103    40   110 1   
   104    41    42 1   
   105    41   111 1   
   106    41   112 1   
   107    42   113 1   
   108    42   114 1   
   109    43    44 1   
   110    43   115 1   
   111    43   116 1   
   112    44    45 1   
   113    44   117 1   
   114    44   118 1   
   115    45    46 1   
   116    45   119 1   
   117    45   120 1   
   118    46    47 1   
   119    46   121 1   
   120    46   122 1   
   121    47    48 1   
   122    47   123 1   
   123    47   124 1   
   124    48   125 1   
   125    48   126 1   
   126    48   127 1   
@<TRIPOS>SUBSTRUCTURE
     1 3LY         1 TEMP              0 ****  ****    0 ROOT
