@<TRIPOS>MOLECULE
3LZ
   46    48     1     0     0
SMALL
abcg2


@<TRIPOS>ATOM
      1 C18         -3.1920     2.0100     2.1770 ca         1 3LZ      -0.134000
      2 N5           0.3870    -2.2720     0.7030 nb         1 3LZ      -0.690000
      3 C14          5.8250     1.0360    -1.8970 ca         1 3LZ      -0.170000
      4 C13          6.3570     1.2850    -0.6360 ca         1 3LZ      -0.062000
      5 C12          5.5900     1.0260     0.4830 ca         1 3LZ      -0.150000
      6 C17         -2.2470     1.2340     1.5220 ca         1 3LZ      -0.137000
      7 C15          4.5370     0.5360    -1.9700 ca         1 3LZ       0.349900
      8 C11          4.3040     0.5220     0.2880 ca         1 3LZ       0.454300
      9 C22         -2.7990     2.5000    -2.0150 c3         1 3LZ      -0.120700
     10 C6           1.5200    -1.7500     1.1530 ca         1 3LZ       0.434900
     11 C1           1.8290    -0.4030     1.0670 ca         1 3LZ      -0.216000
     12 C4          -0.5130    -1.4790     0.1510 ca         1 3LZ       0.533900
     13 C19         -3.9420     2.9040     1.4360 ca         1 3LZ       0.313900
     14 C21         -2.8990     2.3230    -0.5270 ca         1 3LZ       0.339300
     15 C2           0.8930     0.4440     0.4800 ca         1 3LZ       0.008000
     16 C3          -0.2810    -0.0970     0.0170 ca         1 3LZ      -0.039900
     17 O8          -1.2200     0.6790    -0.6050 os         1 3LZ      -0.245200
     18 C9          -2.1030     1.3950     0.1560 ca         1 3LZ       0.067100
     19 S10          3.3340     0.2070     1.7420 ss         1 3LZ      -0.143300
     20 N16          3.7870     0.2820    -0.8990 nb         1 3LZ      -0.675000
     21 N20         -3.7950     3.0520     0.1240 nb         1 3LZ      -0.654000
     22 C23         -3.6100     1.4510    -2.7760 c3         1 3LZ      -0.081100
     23 C24         -2.3030    -3.1820     0.0330 c          1 3LZ       0.663100
     24 O25         -1.9420    -3.8550     0.9800 o          1 3LZ      -0.578100
     25 N26         -3.3560    -3.5010    -0.7420 ns         1 3LZ      -0.528900
     26 C27         -4.1620    -4.6670    -0.4680 c3         1 3LZ       0.109300
     27 H1          -3.3390     1.9150     3.2440 ha         1 3LZ       0.127000
     28 H3           7.3590     1.6790    -0.5270 ha         1 3LZ       0.121000
     29 H4           5.9730     1.2100     1.4780 ha         1 3LZ       0.133000
     30 H5          -1.6450     0.5280     2.0800 ha         1 3LZ       0.135000
     31 H6           4.0820     0.3270    -2.9310 h4         1 3LZ       0.021100
     32 H7          -3.1750     3.4940    -2.2600 hc         1 3LZ       0.061200
     33 H8          -1.7570     2.4660    -2.3370 hc         1 3LZ       0.061200
     34 H9           2.2260    -2.4430     1.5980 h4         1 3LZ       0.039100
     35 H10         -4.6870     3.5290     1.9150 h4         1 3LZ       0.023100
     36 H11          1.0770     1.5070     0.3900 ha         1 3LZ       0.143000
     37 H13         -3.5170     1.6000    -3.8520 hc         1 3LZ       0.033033
     38 H14         -3.2720     0.4380    -2.5550 hc         1 3LZ       0.033033
     39 H15         -4.6680     1.5140    -2.5190 hc         1 3LZ       0.033033
     40 H16         -3.5900    -2.9450    -1.5470 hn         1 3LZ       0.315500
     41 H17         -3.5790    -5.5870    -0.5210 h1         1 3LZ       0.041700
     42 H18         -4.6310    -4.6150     0.5150 h1         1 3LZ       0.041700
     43 H19         -4.9470    -4.7190    -1.2160 h1         1 3LZ       0.041700
     44 N7          -1.6870    -1.9940    -0.3470 ns         1 3LZ      -0.342900
     45 H2           6.3920     1.2260    -2.7970 ha         1 3LZ       0.126000
     46 H12         -2.1890    -1.3960    -0.9850 hn         1 3LZ       0.165000
@<TRIPOS>BOND
     1     1     6 ar  
     2     1    13 ar  
     3     1    27 1   
     4     2    10 ar  
     5     2    12 ar  
     6     3     4 ar  
     7     3     7 ar  
     8     3    45 1   
     9     4     5 ar  
    10     4    28 1   
    11     5     8 ar  
    12     5    29 1   
    13     6    18 ar  
    14     6    30 1   
    15     7    20 ar  
    16     7    31 1   
    17     8    19 1   
    18     8    20 ar  
    19     9    14 1   
    20     9    22 1   
    21     9    32 1   
    22     9    33 1   
    23    10    11 ar  
    24    10    34 1   
    25    11    15 ar  
    26    11    19 1   
    27    12    16 ar  
    28    12    44 1   
    29    13    21 ar  
    30    13    35 1   
    31    14    18 ar  
    32    14    21 ar  
    33    15    16 ar  
    34    15    36 1   
    35    16    17 1   
    36    17    18 1   
    37    22    37 1   
    38    22    38 1   
    39    22    39 1   
    40    23    24 2   
    41    23    25 1   
    42    23    44 1   
    43    25    26 1   
    44    25    40 1   
    45    26    41 1   
    46    26    42 1   
    47    26    43 1   
    48    44    46 1   
@<TRIPOS>SUBSTRUCTURE
     1 3LZ         1 TEMP              0 ****  ****    0 ROOT
