@<TRIPOS>MOLECULE
3LZ
   46    48     1     0     0
SMALL
No Charge or Current Charge


@<TRIPOS>ATOM
      1 C18         -2.8170     2.7830     2.3770 ca         1 3LZ      -0.134000
      2 N5           0.5050    -2.3930     0.4270 nb         1 3LZ      -0.690000
      3 C14          5.8400     0.5540    -1.7310 ca         1 3LZ      -0.170000
      4 C13          5.7900     1.6850    -0.9020 ca         1 3LZ      -0.062000
      5 C12          4.9140     1.6570     0.1950 ca         1 3LZ      -0.150000
      6 C17         -2.2830     1.6250     1.7850 ca         1 3LZ      -0.137000
      7 C15          5.0230    -0.5500    -1.4350 ca         1 3LZ       0.349900
      8 C11          4.1240     0.5150     0.4200 ca         1 3LZ       0.454300
      9 C22         -2.8000     2.6070    -1.9000 c3         1 3LZ      -0.120700
     10 C6           1.5590    -1.7310     0.9560 ca         1 3LZ       0.434900
     11 C1           1.5790    -0.3320     1.1270 ca         1 3LZ      -0.216000
     12 C4          -0.5740    -1.6630     0.0720 ca         1 3LZ       0.533900
     13 C19         -3.3080     3.8140     1.5560 ca         1 3LZ       0.313900
     14 C21         -2.7810     2.6320    -0.3740 ca         1 3LZ       0.339300
     15 C2           0.4650     0.4240     0.7290 ca         1 3LZ       0.008000
     16 C3          -0.6400    -0.2570     0.1870 ca         1 3LZ      -0.039900
     17 O8          -1.7560     0.4300    -0.2560 os         1 3LZ      -0.245200
     18 C9          -2.2540     1.5510     0.3790 ca         1 3LZ       0.067100
     19 S10          3.0140     0.4870     1.8310 ss         1 3LZ      -0.143300
     20 N16          4.1790    -0.5770    -0.3790 nb         1 3LZ      -0.675000
     21 N20         -3.2970     3.7480     0.2040 nb         1 3LZ      -0.654000
     22 C23         -3.9720     1.7810    -2.4690 c3         1 3LZ      -0.081100
     23 C24         -2.0870    -3.6400    -0.2730 c          1 3LZ       0.663100
     24 O25         -1.6860    -4.3740     0.6170 o          1 3LZ      -0.578100
     25 N26         -3.1060    -3.9940    -1.1210 ns         1 3LZ      -0.528900
     26 C27         -3.8110    -5.2760    -1.0680 c3         1 3LZ       0.109300
     27 H1          -2.8580     2.8860     3.4590 ha         1 3LZ       0.127000
     28 H3           6.4110     2.5560    -1.1020 ha         1 3LZ       0.121000
     29 H4           4.8410     2.5090     0.8650 ha         1 3LZ       0.133000
     30 H5          -1.9100     0.8100     2.4020 ha         1 3LZ       0.135000
     31 H6           5.0450    -1.4400    -2.0610 h4         1 3LZ       0.021100
     32 H7          -2.8610     3.6280    -2.2980 hc         1 3LZ       0.061200
     33 H8          -1.8570     2.1940    -2.2760 hc         1 3LZ       0.061200
     34 H9           2.4140    -2.3390     1.2490 h4         1 3LZ       0.039100
     35 H10         -3.7270     4.7190     1.9940 h4         1 3LZ       0.023100
     36 H11          0.4650     1.5070     0.8290 ha         1 3LZ       0.143000
     37 H13         -3.9520     1.7910    -3.5650 hc         1 3LZ       0.033033
     38 H14         -3.9130     0.7390    -2.1340 hc         1 3LZ       0.033033
     39 H15         -4.9330     2.1960    -2.1390 hc         1 3LZ       0.033033
     40 H16         -3.3750    -3.3210    -1.8280 hn         1 3LZ       0.315500
     41 H17         -3.0990    -6.0970    -1.2230 h1         1 3LZ       0.041700
     42 H18         -4.2950    -5.3920    -0.0900 h1         1 3LZ       0.041700
     43 H19         -4.5760    -5.3080    -1.8560 h1         1 3LZ       0.041700
     44 N7          -1.6140    -2.3830    -0.5340 ns         1 3LZ      -0.342900
     45 H2           6.5020     0.5250    -2.5920 ha         1 3LZ       0.126000
     46 H12         -2.1020    -1.8690    -1.2520 hn         1 3LZ       0.165000
@<TRIPOS>BOND
     1     1     6 ar  
     2     1    13 ar  
     3     1    27 1   
     4     2    10 ar  
     5     2    12 ar  
     6     3     4 ar  
     7     3     7 ar  
     8     3    45 1   
     9     4     5 ar  
    10     4    28 1   
    11     5     8 ar  
    12     5    29 1   
    13     6    18 ar  
    14     6    30 1   
    15     7    20 ar  
    16     7    31 1   
    17     8    19 1   
    18     8    20 ar  
    19     9    14 1   
    20     9    22 1   
    21     9    32 1   
    22     9    33 1   
    23    10    11 ar  
    24    10    34 1   
    25    11    15 ar  
    26    11    19 1   
    27    12    16 ar  
    28    12    44 1   
    29    13    21 ar  
    30    13    35 1   
    31    14    18 ar  
    32    14    21 ar  
    33    15    16 ar  
    34    15    36 1   
    35    16    17 1   
    36    17    18 1   
    37    22    37 1   
    38    22    38 1   
    39    22    39 1   
    40    23    24 2   
    41    23    25 1   
    42    23    44 1   
    43    25    26 1   
    44    25    40 1   
    45    26    41 1   
    46    26    42 1   
    47    26    43 1   
    48    44    46 1   
@<TRIPOS>SUBSTRUCTURE
     1 3LZ         1 TEMP              0 ****  ****    0 ROOT
