@<TRIPOS>MOLECULE
3M0
   19    19     1     0     0
SMALL
No Charge or Current Charge


@<TRIPOS>ATOM
      1 OAC          2.3800    -1.1360     0.4950 o          1 3M0      -0.729000
      2 CAH          2.0250    -0.1210    -0.0910 c          1 3M0       0.721600
      3 OAD          2.8030     0.6020    -0.6970 o          1 3M0      -0.729000
      4 CAK          0.5810     0.3080    -0.0130 ca         1 3M0      -0.209600
      5 CAG          0.2840     1.6820     0.1210 ca         1 3M0      -0.048000
      6 CAE         -1.0460     2.1200     0.1940 ca         1 3M0      -0.204000
      7 CAF         -2.0960     1.1960     0.1300 ca         1 3M0      -0.085000
      8 CAI         -1.8250    -0.1790    -0.0090 ca         1 3M0      -0.202300
      9 CAA         -2.9980    -1.1580    -0.0790 c3         1 3M0      -0.020800
     10 CAJ         -0.4810    -0.6200    -0.0820 ca         1 3M0       0.333000
     11 NAB         -0.2240    -1.9560    -0.2250 nv         1 3M0      -1.103000
     12 H2           1.0890     2.4130     0.1750 ha         1 3M0       0.124000
     13 H3          -1.2620     3.1800     0.3000 ha         1 3M0       0.085000
     14 H4          -3.1230     1.5510     0.1880 ha         1 3M0       0.075000
     15 H5          -2.9930    -1.7160    -1.0230 hc         1 3M0       0.018033
     16 H6          -2.9590    -1.8820     0.7440 hc         1 3M0       0.018033
     17 H7          -3.9640    -0.6430    -0.0120 hc         1 3M0       0.018033
     18 H8          -0.9700    -2.6110    -0.0120 hn         1 3M0       0.469000
     19 H9           0.7260    -2.2500     0.0120 hn         1 3M0       0.469000
@<TRIPOS>BOND
     1     1     2 1   
     2     2     3 1   
     3     2     4 1   
     4     4     5 ar  
     5     4    10 ar  
     6     5     6 ar  
     7     5    12 1   
     8     6     7 ar  
     9     6    13 1   
    10     7     8 ar  
    11     7    14 1   
    12     8     9 1   
    13     8    10 ar  
    14     9    15 1   
    15     9    16 1   
    16     9    17 1   
    17    10    11 1   
    18    11    18 1   
    19    11    19 1   
@<TRIPOS>SUBSTRUCTURE
     1 3M0         1 TEMP              0 ****  ****    0 ROOT
