@<TRIPOS>MOLECULE
3M0
   19    19     1     0     0
SMALL
bcc


@<TRIPOS>ATOM
      1 OAC          2.2980    -1.3310    -0.0170 o          1 3M0      -0.834300
      2 CAH          2.0270    -0.1040    -0.0590 c          1 3M0       0.932200
      3 OAD          2.8710     0.8090    -0.1010 o          1 3M0      -0.834300
      4 CAK          0.5630     0.3040    -0.0380 ca         1 3M0      -0.209600
      5 CAG          0.2580     1.6620     0.0570 ca         1 3M0      -0.066000
      6 CAE         -1.0440     2.1200     0.1340 ca         1 3M0      -0.222000
      7 CAF         -2.0820     1.1940     0.1120 ca         1 3M0      -0.103000
      8 CAI         -1.8370    -0.1640     0.0050 ca         1 3M0      -0.202300
      9 CAA         -2.9700    -1.1480    -0.0380 c3         1 3M0      -0.020800
     10 CAJ         -0.5020    -0.6260    -0.0760 ca         1 3M0       0.194600
     11 NAB         -0.2710    -1.9690    -0.2430 nv         1 3M0      -0.854200
     12 H2           1.0770     2.3690     0.0800 ha         1 3M0       0.142000
     13 H3          -1.2530     3.1790     0.2120 ha         1 3M0       0.103000
     14 H4          -3.1090     1.5370     0.1760 ha         1 3M0       0.093000
     15 H5          -2.9460    -1.7550    -0.9460 hc         1 3M0       0.018033
     16 H6          -2.9480    -1.8430     0.8070 hc         1 3M0       0.018033
     17 H7          -3.9320    -0.6380    -0.0070 hc         1 3M0       0.018033
     18 H8          -0.9520    -2.6010     0.1440 hn         1 3M0       0.413800
     19 H9           0.7010    -2.2150    -0.0830 hn         1 3M0       0.413800
@<TRIPOS>BOND
     1     1     2 1   
     2     2     3 1   
     3     2     4 1   
     4     4     5 ar  
     5     4    10 ar  
     6     5     6 ar  
     7     5    12 1   
     8     6     7 ar  
     9     6    13 1   
    10     7     8 ar  
    11     7    14 1   
    12     8     9 1   
    13     8    10 ar  
    14     9    15 1   
    15     9    16 1   
    16     9    17 1   
    17    10    11 1   
    18    11    18 1   
    19    11    19 1   
@<TRIPOS>SUBSTRUCTURE
     1 3M0         1 TEMP              0 ****  ****    0 ROOT
