@<TRIPOS>MOLECULE
3M1
   28    29     1     0     0
SMALL
No Charge or Current Charge


@<TRIPOS>ATOM
      1 OAA         -1.0680     2.3440    -1.0780 o          1 3M1      -0.499100
      2 OAB          4.8040     0.2200     0.3990 o          1 3M1      -0.404000
      3 OAD          3.4830    -2.0470     0.0590 oh         1 3M1      -0.543100
      4 OAE          3.7670     2.1320     0.2770 o          1 3M1      -0.404000
      5 FAF         -1.8740    -0.2570     1.6940 f          1 3M1      -0.171000
      6 CAG         -5.0960    -0.4980    -0.0190 ca         1 3M1      -0.061000
      7 CAH         -4.8250     0.2230    -1.1940 ca         1 3M1      -0.134000
      8 CAI         -4.0880    -0.6630     0.9450 ca         1 3M1      -0.160000
      9 CAJ         -3.5470     0.7690    -1.4100 ca         1 3M1      -0.039000
     10 CAK         -0.0030    -1.0740    -0.5670 ca         1 3M1      -0.037000
     11 CAL          1.3090     0.9500    -0.2340 ca         1 3M1       0.006000
     12 CAM         -1.1670     1.1840    -0.6960 c          1 3M1       0.609300
     13 CAN          1.1500    -1.8480    -0.3790 ca         1 3M1       0.089100
     14 CAO         -2.8110    -0.1190     0.7310 ca         1 3M1       0.204000
     15 CAP          2.3930    -1.2340    -0.1140 ca         1 3M1       0.165100
     16 CAQ          0.0640     0.3330    -0.4850 ca         1 3M1      -0.177600
     17 CAR         -2.5250     0.5870    -0.4550 ca         1 3M1      -0.215600
     18 CAS          2.4860     0.1810    -0.0410 ca         1 3M1      -0.266200
     19 NAT          3.7800     0.8960     0.2310 no         1 3M1       0.706200
     20 HOAC         1.9810    -3.5540    -0.2990 ho         1 3M1       0.491000
     21 HOAD         4.2650    -1.4680     0.2310 ho         1 3M1       0.532000
     22 HAG         -6.0860    -0.9190     0.1470 ha         1 3M1       0.122000
     23 HAH         -5.6060     0.3590    -1.9390 ha         1 3M1       0.126000
     24 HAI         -4.2950    -1.2060     1.8640 ha         1 3M1       0.138000
     25 HAJ         -3.3510     1.3270    -2.3250 ha         1 3M1       0.132000
     26 HAK         -0.9430    -1.5760    -0.7840 ha         1 3M1       0.147000
     27 HAL          1.3500     2.0380    -0.1830 ha         1 3M1       0.169000
     28 OAC          1.0710    -3.2120    -0.4580 oh         1 3M1      -0.525100
@<TRIPOS>BOND
     1     1    12 2   
     2     2    19 1   
     3     3    15 1   
     4     3    21 1   
     5     4    19 1   
     6     5    14 1   
     7     6     7 ar  
     8     6     8 ar  
     9     6    22 1   
    10     7     9 ar  
    11     7    23 1   
    12     8    14 ar  
    13     8    24 1   
    14     9    17 ar  
    15     9    25 1   
    16    10    13 ar  
    17    10    16 ar  
    18    10    26 1   
    19    11    16 ar  
    20    11    18 ar  
    21    11    27 1   
    22    12    16 1   
    23    12    17 1   
    24    13    15 ar  
    25    13    28 1   
    26    14    17 ar  
    27    15    18 ar  
    28    18    19 1   
    29    20    28 1   
@<TRIPOS>SUBSTRUCTURE
     1 3M1         1 TEMP              0 ****  ****    0 ROOT
