@<TRIPOS>MOLECULE
3M1
   28    29     1     0     0
SMALL
bcc


@<TRIPOS>ATOM
      1 OAA         -1.0540     2.3070    -1.0570 o          1 3M1      -0.499100
      2 OAB          4.6740     0.2150     0.3520 o          1 3M1      -0.214000
      3 OAD          3.4250    -2.0150     0.0390 oh         1 3M1      -0.504100
      4 OAE          3.6670     2.0890     0.2630 o          1 3M1      -0.214000
      5 FAF         -1.8740    -0.2790     1.6680 f          1 3M1      -0.135900
      6 CAG         -5.0410    -0.4780    -0.0290 ca         1 3M1      -0.079000
      7 CAH         -4.7540     0.2210    -1.1960 ca         1 3M1      -0.152000
      8 CAI         -4.0670    -0.6530     0.9440 ca         1 3M1      -0.178000
      9 CAJ         -3.4880     0.7450    -1.3910 ca         1 3M1      -0.057000
     10 CAK          0.0180    -1.0650    -0.5210 ca         1 3M1      -0.055000
     11 CAL          1.2750     0.9650    -0.2310 ca         1 3M1      -0.012000
     12 CAM         -1.1410     1.1620    -0.6690 c          1 3M1       0.609300
     13 CAN          1.1550    -1.8240    -0.3660 ca         1 3M1       0.089100
     14 CAO         -2.8080    -0.1350     0.7180 ca         1 3M1       0.168900
     15 CAP          2.3930    -1.1990    -0.1130 ca         1 3M1       0.165100
     16 CAQ          0.0700     0.3330    -0.4540 ca         1 3M1      -0.177600
     17 CAR         -2.4830     0.5560    -0.4420 ca         1 3M1      -0.215600
     18 CAS          2.4240     0.2020    -0.0490 ca         1 3M1      -0.266200
     19 NAT          3.6650     0.8880     0.2050 no         1 3M1       0.326200
     20 HOAC         1.9370    -3.5710    -0.3300 ho         1 3M1       0.452000
     21 HOAD         4.2330    -1.4910     0.1960 ho         1 3M1       0.493000
     22 HAG         -6.0300    -0.8840     0.1330 ha         1 3M1       0.140000
     23 HAH         -5.5180     0.3600    -1.9480 ha         1 3M1       0.144000
     24 HAI         -4.2820    -1.1770     1.8660 ha         1 3M1       0.156000
     25 HAJ         -3.2610     1.2920    -2.2970 ha         1 3M1       0.150000
     26 HAK         -0.9130    -1.5770    -0.7300 ha         1 3M1       0.165000
     27 HAL          1.3260     2.0430    -0.1850 ha         1 3M1       0.187000
     28 OAC          1.0730    -3.1600    -0.4570 oh         1 3M1      -0.486100
@<TRIPOS>BOND
     1     1    12 2   
     2     2    19 1   
     3     3    15 1   
     4     3    21 1   
     5     4    19 1   
     6     5    14 1   
     7     6     7 ar  
     8     6     8 ar  
     9     6    22 1   
    10     7     9 ar  
    11     7    23 1   
    12     8    14 ar  
    13     8    24 1   
    14     9    17 ar  
    15     9    25 1   
    16    10    13 ar  
    17    10    16 ar  
    18    10    26 1   
    19    11    16 ar  
    20    11    18 ar  
    21    11    27 1   
    22    12    16 1   
    23    12    17 1   
    24    13    15 ar  
    25    13    28 1   
    26    14    17 ar  
    27    15    18 ar  
    28    18    19 1   
    29    20    28 1   
@<TRIPOS>SUBSTRUCTURE
     1 3M1         1 TEMP              0 ****  ****    0 ROOT
