@<TRIPOS>MOLECULE
3M2
   27    28     1     0     0
SMALL
abcg2


@<TRIPOS>ATOM
      1 CAA         -2.1590    -0.3530     1.9320 c3         1 3M2       0.217100
      2 NAB         -4.9590    -1.1000     2.1250 nv         1 3M2      -1.040200
      3 OAC         -4.6990     0.8330    -1.9900 o          1 3M2      -0.527100
      4 CAG         -1.9040     0.6310    -1.0720 ce         1 3M2      -0.139200
      5 CAH          0.4280     1.4450    -0.9670 ca         1 3M2      -0.024000
      6 CAI         -0.0180    -0.8140    -0.3110 ca         1 3M2      -0.024000
      7 NAJ         -5.2310    -0.1850     0.0060 nc         1 3M2      -0.768100
      8 CAK          2.2590     0.0350    -0.2150 ca         1 3M2       0.202100
      9 CAL         -0.4910     0.4170    -0.7570 ca         1 3M2      -0.094800
     10 CAM          1.7680     1.2550    -0.6930 ca         1 3M2      -0.099400
     11 CAN          1.3270    -0.9930    -0.0390 ca         1 3M2      -0.099400
     12 CAO         -4.4730    -0.5600     1.0230 cd         1 3M2       0.878100
     13 CAP         -4.3920     0.3590    -0.9110 c          1 3M2       0.701700
     14 CAQ         -2.9860     0.2480    -0.3880 cd         1 3M2      -0.017200
     15 NAR         -3.1350    -0.3340     0.8630 na         1 3M2      -0.664400
     16 HAA         -2.6510    -0.1990     2.8910 h1         1 3M2       0.049700
     17 HAAA        -1.6090    -1.2920     1.9700 h1         1 3M2       0.049700
     18 HAAB        -1.4560     0.4630     1.7960 h1         1 3M2       0.049700
     19 HNAB        -5.9520    -1.2500     2.1960 hn         1 3M2       0.513000
     20 HNAA        -4.3800    -1.4850     2.8510 hn         1 3M2       0.513000
     21 HOAD         3.8220    -0.9470     0.3160 ho         1 3M2       0.487000
     22 HAG         -2.1170     1.1580    -1.9970 ha         1 3M2       0.217000
     23 HAH          0.0830     2.4020    -1.3360 ha         1 3M2       0.138000
     24 HAI         -0.7010    -1.6450    -0.2030 ha         1 3M2       0.138000
     25 OAD          3.5640    -0.0620     0.0250 oh         1 3M2      -0.503100
     26 BRAE         2.9820     2.6650    -0.9670 br         1 3M2      -0.076600
     27 BRAF         1.9180    -2.6760     0.5740 br         1 3M2      -0.076600
@<TRIPOS>BOND
     1     1    15 1   
     2     1    16 1   
     3     1    17 1   
     4     1    18 1   
     5     2    12 1   
     6     2    19 1   
     7     2    20 1   
     8     3    13 2   
     9     4     9 1   
    10     4    14 2   
    11     4    22 1   
    12     5     9 ar  
    13     5    10 ar  
    14     5    23 1   
    15     6     9 ar  
    16     6    11 ar  
    17     6    24 1   
    18     7    12 2   
    19     7    13 1   
    20     8    10 ar  
    21     8    11 ar  
    22     8    25 1   
    23    10    26 1   
    24    11    27 1   
    25    12    15 1   
    26    13    14 1   
    27    14    15 1   
    28    21    25 1   
@<TRIPOS>SUBSTRUCTURE
     1 3M2         1 TEMP              0 ****  ****    0 ROOT
