@<TRIPOS>MOLECULE
3M2
   27    28     1     0     0
SMALL
No Charge or Current Charge


@<TRIPOS>ATOM
      1 CAA         -2.1350    -0.0330     2.0440 c3         1 3M2       0.217100
      2 NAB         -4.9110    -1.1630     2.1280 nv         1 3M2      -1.040200
      3 OAC         -4.7340     0.4160    -2.1190 o          1 3M2      -0.527100
      4 CAG         -1.9390     0.8620    -0.9650 ce         1 3M2      -0.139200
      5 CAH          0.4710     1.5390    -0.8840 ca         1 3M2      -0.024000
      6 CAI         -0.1130    -0.7560    -0.3350 ca         1 3M2      -0.024000
      7 NAJ         -5.1410    -0.4460    -0.0260 nc         1 3M2      -0.768100
      8 CAK          2.2180    -0.0450    -0.2630 ca         1 3M2       0.202100
      9 CAL         -0.5060     0.5420    -0.7130 ca         1 3M2      -0.094800
     10 CAM          1.8280     1.2500    -0.6570 ca         1 3M2      -0.099400
     11 CAN          1.2420    -1.0480    -0.1050 ca         1 3M2      -0.099400
     12 CAO         -4.4340    -0.5850     1.0530 cd         1 3M2       0.878100
     13 CAP         -4.3770     0.1440    -0.9830 c          1 3M2       0.701700
     14 CAQ         -3.0630     0.3510    -0.3470 cd         1 3M2      -0.017200
     15 NAR         -3.1350    -0.1380     0.9570 na         1 3M2      -0.664400
     16 HAA         -2.6340     0.1910     2.9960 h1         1 3M2       0.049700
     17 HAAA        -1.5850    -0.9770     2.1420 h1         1 3M2       0.049700
     18 HAAB        -1.4260     0.7770     1.8310 h1         1 3M2       0.049700
     19 HNAB        -5.7560    -1.6850     1.9480 hn         1 3M2       0.513000
     20 HNAA        -4.2230    -1.6410     2.6900 hn         1 3M2       0.513000
     21 HOAD         3.5970    -1.2740     0.2190 ho         1 3M2       0.487000
     22 HAG         -2.1170     1.2450    -1.9720 ha         1 3M2       0.217000
     23 HAH          0.1760     2.5420    -1.1860 ha         1 3M2       0.138000
     24 HAI         -0.8600    -1.5390    -0.2230 ha         1 3M2       0.138000
     25 OAD          3.5360    -0.3290    -0.0390 oh         1 3M2      -0.503100
     26 BrAE         3.1270     2.6450    -0.8910 br         1 3M2      -0.076600
     27 BrAF         1.7310    -2.8280     0.4230 br         1 3M2      -0.076600
@<TRIPOS>BOND
     1     1    15 1   
     2     1    16 1   
     3     1    17 1   
     4     1    18 1   
     5     2    12 1   
     6     2    19 1   
     7     2    20 1   
     8     3    13 2   
     9     4     9 1   
    10     4    14 2   
    11     4    22 1   
    12     5     9 ar  
    13     5    10 ar  
    14     5    23 1   
    15     6     9 ar  
    16     6    11 ar  
    17     6    24 1   
    18     7    12 2   
    19     7    13 1   
    20     8    10 ar  
    21     8    11 ar  
    22     8    25 1   
    23    10    26 1   
    24    11    27 1   
    25    12    15 1   
    26    13    14 1   
    27    14    15 1   
    28    21    25 1   
@<TRIPOS>SUBSTRUCTURE
     1 3M2         1 TEMP              0 ****  ****    0 ROOT
