@<TRIPOS>MOLECULE
3M3
   35    36     1     0     0
SMALL
No Charge or Current Charge


@<TRIPOS>ATOM
      1 CAA          3.7680     2.5730     0.2750 c3         1 3M3      -0.031800
      2 CAB          3.5960    -2.5560    -0.0550 c3         1 3M3      -0.120400
      3 CAD         -5.7340    -0.0600     0.6640 ca         1 3M3      -0.124000
      4 CAE         -4.8040    -0.0850     1.7170 ca         1 3M3      -0.088000
      5 CAF         -5.2870    -0.0180    -0.6680 ca         1 3M3      -0.119000
      6 CAG         -3.4240    -0.0680     1.4440 ca         1 3M3      -0.180000
      7 CAH          0.7690    -0.0020     0.0770 c3         1 3M3      -0.081400
      8 CAI         -0.5920    -0.0310     0.7970 c3         1 3M3       0.163600
      9 CAJ          1.9640    -0.0230     1.0500 c3         1 3M3       0.013900
     10 NAK          5.1490     0.6000    -0.6410 na         1 3M3      -0.006200
     11 NAL          5.1400    -0.7800    -0.7510 nc         1 3M3      -0.519800
     12 OAM         -1.6170    -0.0080    -0.2090 os         1 3M3      -0.331100
     13 CAN         -3.9090    -0.0010    -0.9440 ca         1 3M3       0.136000
     14 CAO          4.0310     1.1140     0.0130 cc         1 3M3      -0.129300
     15 CAP          4.0080    -1.1110    -0.1600 cd         1 3M3       0.265300
     16 CAQ         -2.9650    -0.0260     0.1060 ca         1 3M3       0.110100
     17 CAR          3.2890     0.0090     0.3270 cd         1 3M3      -0.203300
     18 HAA          2.7650     2.8550    -0.0670 hc         1 3M3       0.050700
     19 HAAA         3.8330     2.7930     1.3470 hc         1 3M3       0.050700
     20 HAAB         4.4920     3.2110    -0.2450 hc         1 3M3       0.050700
     21 HAB          3.5290    -2.8640     0.9950 hc         1 3M3       0.046700
     22 HABA         2.6160    -2.7160    -0.5160 hc         1 3M3       0.046700
     23 HABB         4.3120    -3.2200    -0.5530 hc         1 3M3       0.046700
     24 HAD         -6.8010    -0.0730     0.8800 ha         1 3M3       0.119000
     25 HAE         -5.1530    -0.1170     2.7470 ha         1 3M3       0.115000
     26 HAF         -6.0030     0.0010    -1.4850 ha         1 3M3       0.132000
     27 HAG         -2.7300    -0.0880     2.2800 ha         1 3M3       0.119000
     28 HAH          0.8360    -0.8630    -0.5980 hc         1 3M3       0.060700
     29 HAHA         0.8270     0.9010    -0.5430 hc         1 3M3       0.060700
     30 HAI         -0.6650    -0.9430     1.4050 h1         1 3M3       0.032700
     31 HAIA        -0.6770     0.8420     1.4570 h1         1 3M3       0.032700
     32 HAJ          1.8890     0.8330     1.7320 hc         1 3M3       0.041200
     33 HAJA         1.9020    -0.9200     1.6790 hc         1 3M3       0.041200
     34 HNAK         5.9200     1.1500    -1.0170 hn         1 3M3       0.369000
     35 FAC         -3.4960     0.0390    -2.2330 f          1 3M3      -0.169000
@<TRIPOS>BOND
     1     1    14 1   
     2     1    18 1   
     3     1    19 1   
     4     1    20 1   
     5     2    15 1   
     6     2    21 1   
     7     2    22 1   
     8     2    23 1   
     9     3     4 ar  
    10     3     5 ar  
    11     3    24 1   
    12     4     6 ar  
    13     4    25 1   
    14     5    13 ar  
    15     5    26 1   
    16     6    16 ar  
    17     6    27 1   
    18     7     8 1   
    19     7     9 1   
    20     7    28 1   
    21     7    29 1   
    22     8    12 1   
    23     8    30 1   
    24     8    31 1   
    25     9    17 1   
    26     9    32 1   
    27     9    33 1   
    28    10    11 1   
    29    10    14 1   
    30    10    34 1   
    31    11    15 2   
    32    12    16 1   
    33    13    16 ar  
    34    13    35 1   
    35    14    17 2   
    36    15    17 1   
@<TRIPOS>SUBSTRUCTURE
     1 3M3         1 TEMP              0 ****  ****    0 ROOT
