@<TRIPOS>MOLECULE
3M3
   35    36     1     0     0
SMALL
bcc


@<TRIPOS>ATOM
      1 CAA          3.7880     2.5580     0.2640 c3         1 3M3      -0.031800
      2 CAB          3.5560    -2.5340    -0.0910 c3         1 3M3      -0.120400
      3 CAD         -5.6500    -0.0610     0.7460 ca         1 3M3      -0.142000
      4 CAE         -4.7060    -0.0580     1.7570 ca         1 3M3      -0.106000
      5 CAF         -5.2320    -0.0570    -0.5820 ca         1 3M3      -0.137000
      6 CAG         -3.3450    -0.0520     1.4620 ca         1 3M3      -0.198000
      7 CAH          0.7290    -0.0130     0.0010 c3         1 3M3      -0.081400
      8 CAI         -0.6070    -0.0370     0.7120 c3         1 3M3       0.140400
      9 CAJ          1.8840    -0.0030     1.0040 c3         1 3M3       0.013900
     10 NAK          5.0960     0.6140    -0.5810 na         1 3M3      -0.006600
     11 NAL          5.0850    -0.7130    -0.7010 nc         1 3M3      -0.519800
     12 OAM         -1.6350    -0.0390    -0.2690 os         1 3M3      -0.307900
     13 CAN         -3.8860    -0.0510    -0.8630 ca         1 3M3       0.100900
     14 CAO          4.0040     1.1050     0.0360 cc         1 3M3      -0.078600
     15 CAP          3.9490    -1.0980    -0.1480 cd         1 3M3       0.330600
     16 CAQ         -2.9130    -0.0470     0.1400 ca         1 3M3       0.110100
     17 CAR          3.2210     0.0100     0.3430 cd         1 3M3      -0.268600
     18 HAA          3.4060     3.0520    -0.6310 hc         1 3M3       0.050700
     19 HAAA         3.0620     2.7150     1.0600 hc         1 3M3       0.050700
     20 HAAB         4.7110     3.0630     0.5510 hc         1 3M3       0.050700
     21 HAB          3.2790    -2.8300     0.9220 hc         1 3M3       0.046700
     22 HABA         2.6940    -2.7400    -0.7290 hc         1 3M3       0.046700
     23 HABB         4.3730    -3.1760    -0.4180 hc         1 3M3       0.046700
     24 HAD         -6.7060    -0.0650     0.9750 ha         1 3M3       0.137000
     25 HAE         -5.0170    -0.0620     2.7930 ha         1 3M3       0.133000
     26 HAF         -5.9470    -0.0590    -1.3940 ha         1 3M3       0.150000
     27 HAG         -2.6330    -0.0510     2.2760 ha         1 3M3       0.137000
     28 HAH          0.8160    -0.8870    -0.6510 hc         1 3M3       0.060700
     29 HAHA         0.7940     0.8730    -0.6370 hc         1 3M3       0.060700
     30 HAI         -0.6840    -0.9280     1.3460 h1         1 3M3       0.032700
     31 HAIA        -0.7050     0.8400     1.3630 h1         1 3M3       0.032700
     32 HAJ          1.7830     0.8670     1.6600 hc         1 3M3       0.041200
     33 HAJA         1.8010    -0.8780     1.6570 hc         1 3M3       0.041200
     34 HNAK         5.8810     1.1380    -0.9290 hn         1 3M3       0.318700
     35 FAC         -3.4700    -0.0470    -2.1400 f          1 3M3      -0.133900
@<TRIPOS>BOND
     1     1    14 1   
     2     1    18 1   
     3     1    19 1   
     4     1    20 1   
     5     2    15 1   
     6     2    21 1   
     7     2    22 1   
     8     2    23 1   
     9     3     4 ar  
    10     3     5 ar  
    11     3    24 1   
    12     4     6 ar  
    13     4    25 1   
    14     5    13 ar  
    15     5    26 1   
    16     6    16 ar  
    17     6    27 1   
    18     7     8 1   
    19     7     9 1   
    20     7    28 1   
    21     7    29 1   
    22     8    12 1   
    23     8    30 1   
    24     8    31 1   
    25     9    17 1   
    26     9    32 1   
    27     9    33 1   
    28    10    11 1   
    29    10    14 1   
    30    10    34 1   
    31    11    15 2   
    32    12    16 1   
    33    13    16 ar  
    34    13    35 1   
    35    14    17 2   
    36    15    17 1   
@<TRIPOS>SUBSTRUCTURE
     1 3M3         1 TEMP              0 ****  ****    0 ROOT
