@<TRIPOS>MOLECULE
3M4
   33    35     1     0     0
SMALL
abcg2


@<TRIPOS>ATOM
      1 CAA         -3.7610     3.3620    -0.1590 c3         1 3M4      -0.095100
      2 CAB         -4.1280    -2.2970     0.0320 ca         1 3M4      -0.036000
      3 CAC         -2.9220    -2.9850     0.0800 ca         1 3M4      -0.166000
      4 CAD          5.2440     0.9850     0.0800 ca         1 3M4       0.325900
      5 CAE          4.9630    -1.2260    -0.3570 ca         1 3M4       0.325900
      6 CAF         -4.1580    -0.9120     0.0200 ca         1 3M4      -0.220000
      7 CAG         -1.7420    -2.2680     0.1150 ca         1 3M4      -0.017000
      8 CAH          3.8800     1.1960     0.1920 ca         1 3M4      -0.126000
      9 CAI          3.5830    -1.1270    -0.2650 ca         1 3M4      -0.126000
     10 CAJ         -4.1270     1.8990    -0.1210 c3         1 3M4       0.167600
     11 NAK          5.7850    -0.1980    -0.1890 nb         1 3M4      -0.654000
     12 NAL          0.9910     1.4060     0.3180 nc         1 3M4      -0.379300
     13 NAM          0.7070    -0.7760    -0.0070 nd         1 3M4      -0.736000
     14 OAN         -2.9240     1.1520     0.0460 os         1 3M4      -0.333100
     15 OAO         -0.3360     1.1020     0.3330 os         1 3M4      -0.057700
     16 CAP          3.0240     0.1130     0.0150 ca         1 3M4      -0.098500
     17 CAQ         -2.9700    -0.1800     0.0600 ca         1 3M4       0.202100
     18 CAR          1.5720     0.2620     0.1140 cd         1 3M4       0.607500
     19 CAS         -1.7430    -0.8710     0.1090 ca         1 3M4      -0.211500
     20 CAT         -0.4510    -0.2070     0.1360 cc         1 3M4       0.568500
     21 HAA         -4.6650     3.9520    -0.3120 hc         1 3M4       0.052367
     22 HAAA        -3.3040     3.6840     0.7760 hc         1 3M4       0.052367
     23 HAAB        -3.0750     3.5800    -0.9770 hc         1 3M4       0.052367
     24 HAB         -5.0620    -2.8420     0.0030 ha         1 3M4       0.116000
     25 HAC         -2.9030    -4.0650     0.0890 ha         1 3M4       0.125000
     26 HAE          5.4200    -2.1840    -0.5780 h4         1 3M4       0.021600
     27 HAF         -5.1140    -0.4090    -0.0200 ha         1 3M4       0.123000
     28 HAG         -0.7960    -2.7910     0.1530 ha         1 3M4       0.140000
     29 HAH          3.5030     2.1850     0.4150 ha         1 3M4       0.141500
     30 HAI          2.9640    -2.0010    -0.4130 ha         1 3M4       0.141500
     31 HAJ         -4.8150     1.6970     0.7060 h1         1 3M4       0.036700
     32 HAJA        -4.6230     1.5990    -1.0490 h1         1 3M4       0.036700
     33 HAD          5.9290     1.8140     0.2160 h4         1 3M4       0.021600
@<TRIPOS>BOND
     1     1    10 1   
     2     1    21 1   
     3     1    22 1   
     4     1    23 1   
     5     2     3 ar  
     6     2     6 ar  
     7     2    24 1   
     8     3     7 ar  
     9     3    25 1   
    10     4     8 ar  
    11     4    11 ar  
    12     4    33 1   
    13     5     9 ar  
    14     5    11 ar  
    15     5    26 1   
    16     6    17 ar  
    17     6    27 1   
    18     7    19 ar  
    19     7    28 1   
    20     8    16 ar  
    21     8    29 1   
    22     9    16 ar  
    23     9    30 1   
    24    10    14 1   
    25    10    31 1   
    26    10    32 1   
    27    12    15 1   
    28    12    18 2   
    29    13    18 1   
    30    13    20 2   
    31    14    17 1   
    32    15    20 1   
    33    16    18 1   
    34    17    19 ar  
    35    19    20 1   
@<TRIPOS>SUBSTRUCTURE
     1 3M4         1 TEMP              0 ****  ****    0 ROOT
