@<TRIPOS>MOLECULE
3M4
   33    35     1     0     0
SMALL
No Charge or Current Charge


@<TRIPOS>ATOM
      1 CAA         -3.7290     3.4090    -0.2760 c3         1 3M4      -0.095100
      2 CAB         -4.2060    -2.3490     0.0630 ca         1 3M4      -0.036000
      3 CAC         -2.9950    -3.0440     0.1710 ca         1 3M4      -0.166000
      4 CAD          5.3060     1.0220     0.1360 ca         1 3M4       0.325900
      5 CAE          5.0220    -1.1630    -0.5710 ca         1 3M4       0.325900
      6 CAF         -4.2010    -0.9480    -0.0040 ca         1 3M4      -0.220000
      7 CAG         -1.7810    -2.3420     0.2230 ca         1 3M4      -0.017000
      8 CAH          3.9230     1.1930     0.3150 ca         1 3M4      -0.126000
      9 CAI          3.6270    -1.0790    -0.4200 ca         1 3M4      -0.126000
     10 CAJ         -4.1580     1.9360    -0.2000 c3         1 3M4       0.167600
     11 NAK          5.8570    -0.1340    -0.3000 nb         1 3M4      -0.654000
     12 NAL          1.0010     1.3670     0.6410 nc         1 3M4      -0.379300
     13 NAM          0.7050    -0.7790    -0.0520 nd         1 3M4      -0.736000
     14 OAN         -2.9650     1.1480    -0.0560 os         1 3M4      -0.333100
     15 OAO         -0.3730     1.0470     0.6650 os         1 3M4      -0.057700
     16 CAP          3.0410     0.1240     0.0340 ca         1 3M4      -0.098500
     17 CAQ         -2.9850    -0.2290     0.0470 ca         1 3M4       0.202100
     18 CAR          1.5760     0.2540     0.2090 cd         1 3M4       0.607500
     19 CAS         -1.7610    -0.9290     0.1840 ca         1 3M4      -0.211500
     20 CAT         -0.4650    -0.2370     0.2160 cc         1 3M4       0.568500
     21 HAA         -4.6080     4.0550    -0.3860 hc         1 3M4       0.052367
     22 HAAA        -3.1970     3.7040     0.6360 hc         1 3M4       0.052367
     23 HAAB        -3.0700     3.5750    -1.1360 hc         1 3M4       0.052367
     24 HAB         -5.1460    -2.8960     0.0220 ha         1 3M4       0.116000
     25 HAC         -2.9950    -4.1310     0.2130 ha         1 3M4       0.125000
     26 HAE          5.4860    -2.0850    -0.9210 h4         1 3M4       0.021600
     27 HAF         -5.1550    -0.4380    -0.1020 ha         1 3M4       0.123000
     28 HAG         -0.8520    -2.9040     0.3060 ha         1 3M4       0.140000
     29 HAH          3.5530     2.1520     0.6700 ha         1 3M4       0.141500
     30 HAI          3.0170    -1.9470    -0.6570 ha         1 3M4       0.141500
     31 HAJ         -4.8260     1.7940     0.6600 h1         1 3M4       0.036700
     32 HAJA        -4.6970     1.6640    -1.1170 h1         1 3M4       0.036700
     33 HAD          5.9970     1.8370     0.3480 h4         1 3M4       0.021600
@<TRIPOS>BOND
     1     1    10 1   
     2     1    21 1   
     3     1    22 1   
     4     1    23 1   
     5     2     3 ar  
     6     2     6 ar  
     7     2    24 1   
     8     3     7 ar  
     9     3    25 1   
    10     4     8 ar  
    11     4    11 ar  
    12     4    33 1   
    13     5     9 ar  
    14     5    11 ar  
    15     5    26 1   
    16     6    17 ar  
    17     6    27 1   
    18     7    19 ar  
    19     7    28 1   
    20     8    16 ar  
    21     8    29 1   
    22     9    16 ar  
    23     9    30 1   
    24    10    14 1   
    25    10    31 1   
    26    10    32 1   
    27    12    15 1   
    28    12    18 2   
    29    13    18 1   
    30    13    20 2   
    31    14    17 1   
    32    15    20 1   
    33    16    18 1   
    34    17    19 ar  
    35    19    20 1   
@<TRIPOS>SUBSTRUCTURE
     1 3M4         1 TEMP              0 ****  ****    0 ROOT
