@<TRIPOS>MOLECULE
3M5
   42    42     1     0     0
SMALL
No Charge or Current Charge


@<TRIPOS>ATOM
      1 CA          -2.9290    -0.4110     1.0200 c5         1 3M5       0.006700
      2 CB          -3.8150     0.6640     1.7040 c5         1 3M5      -0.135400
      3 C           -3.9170    -1.5600     0.7110 c          1 3M5       0.629100
      4 O           -3.6480    -2.7400     0.5380 o          1 3M5      -0.448000
      5 OAC         -5.1930    -1.1030     0.9060 os         1 3M5      -0.428100
      6 CAB         -5.1880     0.3350     1.0610 c5         1 3M5       0.155600
      7 N           -2.4980     0.1910    -0.2700 ns         1 3M5      -0.503900
      8 CAG         -1.3440     0.9490    -0.2920 c          1 3M5       0.626100
      9 OAL         -0.6570     1.1470     0.6970 o          1 3M5      -0.566100
     10 CAH         -0.9850     1.5210    -1.6420 c3         1 3M5      -0.278400
     11 CAI          0.0310     0.5820    -2.2700 c          1 3M5       0.571100
     12 OAM         -0.3240    -0.4590    -2.8040 o          1 3M5      -0.486100
     13 CAJ          1.5110     0.9990    -2.2420 c3         1 3M5      -0.176400
     14 CAN          2.2970     0.2520    -1.1380 c3         1 3M5      -0.066400
     15 CAO          3.7960     0.6230    -1.1120 c3         1 3M5      -0.075400
     16 CAP          4.5830    -0.1200    -0.0100 c3         1 3M5      -0.074400
     17 CAQ          6.0820     0.2520     0.0170 c3         1 3M5      -0.075400
     18 CAR          6.8690    -0.4910     1.1180 c3         1 3M5      -0.075400
     19 CAS          8.3650    -0.1200     1.1450 c3         1 3M5      -0.088100
     20 H1          -2.1080    -0.7790     1.6510 h1         1 3M5       0.118700
     21 H2          -3.8550     0.5090     2.7890 hc         1 3M5       0.073700
     22 H3          -3.4920     1.6970     1.5330 hc         1 3M5       0.073700
     23 H4          -6.0410     0.6550     1.6740 h1         1 3M5       0.061700
     24 H5          -5.2810     0.7950     0.0680 h1         1 3M5       0.061700
     25 H6          -2.9900     0.0690    -1.1500 hn         1 3M5       0.314500
     26 H7          -1.8720     1.5360    -2.2850 hc         1 3M5       0.081700
     27 H8          -0.5410     2.5090    -1.4870 hc         1 3M5       0.081700
     28 H9           1.9620     0.7600    -3.2130 hc         1 3M5       0.059700
     29 H10          1.5970     2.0740    -2.0440 hc         1 3M5       0.059700
     30 H11          1.8560     0.4760    -0.1590 hc         1 3M5       0.055200
     31 H12          2.1980    -0.8310    -1.2920 hc         1 3M5       0.055200
     32 H13          4.2410     0.3950    -2.0880 hc         1 3M5       0.035200
     33 H14          3.8970     1.7050    -0.9580 hc         1 3M5       0.035200
     34 H15          4.1380     0.1080     0.9670 hc         1 3M5       0.040700
     35 H16          4.4830    -1.2020    -0.1640 hc         1 3M5       0.040700
     36 H17          6.5270     0.0240    -0.9600 hc         1 3M5       0.036200
     37 H18          6.1820     1.3340     0.1700 hc         1 3M5       0.036200
     38 H19          6.4280    -0.2640     2.0970 hc         1 3M5       0.037700
     39 H20          6.7740    -1.5730     0.9670 hc         1 3M5       0.037700
     40 H21          8.4950     0.9530     1.3300 hc         1 3M5       0.031367
     41 H22          8.8810    -0.6710     1.9410 hc         1 3M5       0.031367
     42 H23          8.8440    -0.3680     0.1900 hc         1 3M5       0.031367
@<TRIPOS>BOND
     1     1     2 1   
     2     1     3 1   
     3     1     7 1   
     4     1    20 1   
     5     2     6 1   
     6     2    21 1   
     7     2    22 1   
     8     3     4 2   
     9     3     5 1   
    10     5     6 1   
    11     6    23 1   
    12     6    24 1   
    13     7     8 1   
    14     7    25 1   
    15     8     9 2   
    16     8    10 1   
    17    10    11 1   
    18    10    26 1   
    19    10    27 1   
    20    11    12 2   
    21    11    13 1   
    22    13    14 1   
    23    13    28 1   
    24    13    29 1   
    25    14    15 1   
    26    14    30 1   
    27    14    31 1   
    28    15    16 1   
    29    15    32 1   
    30    15    33 1   
    31    16    17 1   
    32    16    34 1   
    33    16    35 1   
    34    17    18 1   
    35    17    36 1   
    36    17    37 1   
    37    18    19 1   
    38    18    38 1   
    39    18    39 1   
    40    19    40 1   
    41    19    41 1   
    42    19    42 1   
@<TRIPOS>SUBSTRUCTURE
     1 3M5         1 TEMP              0 ****  ****    0 ROOT
