@<TRIPOS>MOLECULE
3M5
   42    42     1     0     0
SMALL
abcg2


@<TRIPOS>ATOM
      1 CA          -4.2800     0.4930     0.5020 c5         1 3M5       0.006700
      2 CB          -5.2870     0.6650    -0.6240 c5         1 3M5      -0.135400
      3 C           -4.1780    -1.0300     0.6140 c          1 3M5       0.629100
      4 O           -3.7170    -1.6750     1.5120 o          1 3M5      -0.448000
      5 OAC         -4.6640    -1.5960    -0.4890 os         1 3M5      -0.428100
      6 CAB         -5.1070    -0.6110    -1.4380 c5         1 3M5       0.155600
      7 N           -2.9810     1.0370     0.1880 ns         1 3M5      -0.503900
      8 CAG         -2.1340     1.5120     1.1230 c          1 3M5       0.626100
      9 OAL         -2.4050     1.5670     2.3090 o          1 3M5      -0.566100
     10 CAH         -0.8000     1.9730     0.5840 c3         1 3M5      -0.278400
     11 CAI          0.2420     0.8740     0.6740 c          1 3M5       0.571100
     12 OAM         -0.0490    -0.2390     1.0420 o          1 3M5      -0.486100
     13 CAJ          1.6330     1.2720     0.2650 c3         1 3M5      -0.176400
     14 CAN          2.6700     0.1640     0.3500 c3         1 3M5      -0.066400
     15 CAO          4.0460     0.6360    -0.1030 c3         1 3M5      -0.075400
     16 CAP          5.1060    -0.4560    -0.0220 c3         1 3M5      -0.074400
     17 CAQ          6.4790     0.0050    -0.4930 c3         1 3M5      -0.075400
     18 CAR          7.5430    -1.0830    -0.4100 c3         1 3M5      -0.075400
     19 CAS          8.9100    -0.6140    -0.8880 c3         1 3M5      -0.088100
     20 H1          -4.6180     0.9160     1.4460 h1         1 3M5       0.118700
     21 H2          -6.2920     0.7040    -0.2030 hc         1 3M5       0.073700
     22 H3          -5.1330     1.5670    -1.2140 hc         1 3M5       0.073700
     23 H4          -6.0270    -0.9690    -1.8940 h1         1 3M5       0.061700
     24 H5          -4.3470    -0.5100    -2.2150 h1         1 3M5       0.061700
     25 H6          -2.6780     1.0190    -0.7740 hn         1 3M5       0.314500
     26 H7          -0.8600     2.3060    -0.4570 hc         1 3M5       0.081700
     27 H8          -0.4550     2.8360     1.1590 hc         1 3M5       0.081700
     28 H9           1.5750     1.6730    -0.7540 hc         1 3M5       0.059700
     29 H10          1.9280     2.1280     0.8820 hc         1 3M5       0.059700
     30 H11          2.7320    -0.2050     1.3780 hc         1 3M5       0.055200
     31 H12          2.3570    -0.6850    -0.2630 hc         1 3M5       0.055200
     32 H13          3.9840     1.0060    -1.1320 hc         1 3M5       0.035200
     33 H14          4.3600     1.4910     0.5070 hc         1 3M5       0.035200
     34 H15          5.1780    -0.8140     1.0110 hc         1 3M5       0.040700
     35 H16          4.7870    -1.3170    -0.6190 hc         1 3M5       0.040700
     36 H17          6.4080     0.3620    -1.5260 hc         1 3M5       0.036200
     37 H18          6.7980     0.8690     0.1020 hc         1 3M5       0.036200
     38 H19          7.6180    -1.4360     0.6230 hc         1 3M5       0.037700
     39 H20          7.2230    -1.9470    -1.0010 hc         1 3M5       0.037700
     40 H21          9.2650     0.2310    -0.2950 hc         1 3M5       0.031367
     41 H22          9.6560    -1.4060    -0.8120 hc         1 3M5       0.031367
     42 H23          8.8750    -0.2910    -1.9300 hc         1 3M5       0.031367
@<TRIPOS>BOND
     1     1     2 1   
     2     1     3 1   
     3     1     7 1   
     4     1    20 1   
     5     2     6 1   
     6     2    21 1   
     7     2    22 1   
     8     3     4 2   
     9     3     5 1   
    10     5     6 1   
    11     6    23 1   
    12     6    24 1   
    13     7     8 1   
    14     7    25 1   
    15     8     9 2   
    16     8    10 1   
    17    10    11 1   
    18    10    26 1   
    19    10    27 1   
    20    11    12 2   
    21    11    13 1   
    22    13    14 1   
    23    13    28 1   
    24    13    29 1   
    25    14    15 1   
    26    14    30 1   
    27    14    31 1   
    28    15    16 1   
    29    15    32 1   
    30    15    33 1   
    31    16    17 1   
    32    16    34 1   
    33    16    35 1   
    34    17    18 1   
    35    17    36 1   
    36    17    37 1   
    37    18    19 1   
    38    18    38 1   
    39    18    39 1   
    40    19    40 1   
    41    19    41 1   
    42    19    42 1   
@<TRIPOS>SUBSTRUCTURE
     1 3M5         1 TEMP              0 ****  ****    0 ROOT
