@<TRIPOS>MOLECULE
3M6
   75    78     1     0     0
SMALL
No Charge or Current Charge


@<TRIPOS>ATOM
      1 C11          1.2660     2.2770     0.6700 c          1 3M6       0.655100
      2 C14          3.8080     1.9510     0.7160 ca         1 3M6       0.037000
      3 C15          4.2080     2.9090    -0.2380 ca         1 3M6      -0.161000
      4 C16          5.5520     3.0030    -0.6370 ca         1 3M6      -0.037000
      5 C25         -2.3600    -0.5910    -0.4750 ca         1 3M6       0.201100
      6 C26         -1.1210    -1.2280    -0.7910 ca         1 3M6       0.158000
      7 C01         -7.3630     1.3800    -1.9550 c3         1 3M6      -0.080100
      8 C02         -6.4980     1.4770    -0.6700 c3         1 3M6      -0.033300
      9 N03         -5.1240     0.9030    -0.8980 n          1 3M6      -0.355800
     10 C04         -4.1220     1.7860    -1.5610 c3         1 3M6       0.115000
     11 C05         -3.1890     2.5890    -0.6090 c3         1 3M6      -0.085700
     12 C06         -3.9860     3.3550     0.4860 c3         1 3M6      -0.098100
     13 C07         -1.9660     1.7720    -0.0710 c3         1 3M6       0.174300
     14 C08         -1.1960     2.5340     1.0490 c3         1 3M6       0.108000
     15 N09          0.1190     1.9770     1.4430 n          1 3M6      -0.407800
     16 C10          0.2090     1.4110     2.8130 c3         1 3M6       0.089300
     17 O12          1.1710     2.9050    -0.3770 o          1 3M6      -0.640100
     18 N13          2.4710     1.8100     1.1700 ns         1 3M6      -0.170000
     19 C17          6.5240     2.1380    -0.0910 ca         1 3M6      -0.242300
     20 C18          6.1270     1.1920     0.8770 ca         1 3M6      -0.037000
     21 C19          4.7820     1.1040     1.2730 ca         1 3M6      -0.161000
     22 C20          7.9920     2.2470    -0.5180 c3         1 3M6       0.360300
     23 F21          8.6400     1.0610    -0.4400 f          1 3M6      -0.120667
     24 F22          8.1260     2.6750    -1.7940 f          1 3M6      -0.120667
     25 F23          8.6670     3.1180     0.2640 f          1 3M6      -0.120667
     26 O24         -2.4040     0.4810     0.4040 os         1 3M6      -0.325100
     27 S28          0.6760    -1.8060     1.1610 sy         1 3M6       1.133600
     28 O29          2.0060    -1.2330     1.3710 o          1 3M6      -0.534000
     29 O30         -0.3850    -1.7280     2.1680 o          1 3M6      -0.534000
     30 C31          0.8300    -3.4880     0.5600 ca         1 3M6      -0.329500
     31 C32          2.0330    -3.9180    -0.0370 ca         1 3M6       0.018000
     32 C33          2.1380    -5.2330    -0.5220 ca         1 3M6      -0.180000
     33 C34          1.0490    -6.1100    -0.4110 ca         1 3M6       0.221000
     34 F35          1.1550    -7.3720    -0.8810 f          1 3M6      -0.173000
     35 C36         -0.1480    -5.6860     0.1820 ca         1 3M6      -0.180000
     36 C37         -0.2620    -4.3730     0.6710 ca         1 3M6       0.018000
     37 C38         -1.0920    -2.2600    -1.7460 ca         1 3M6      -0.127000
     38 C39         -2.2750    -2.7210    -2.3340 ca         1 3M6      -0.131000
     39 C40         -3.5000    -2.1430    -1.9800 ca         1 3M6      -0.054000
     40 C41         -3.5520    -1.0630    -1.0730 ca         1 3M6      -0.137600
     41 C42         -4.9050    -0.4930    -0.7700 c          1 3M6       0.581600
     42 O43         -5.8060    -1.2550    -0.4430 o          1 3M6      -0.528000
     43 C44         -7.2350     0.9910     0.6310 c          1 3M6       0.735000
     44 O45         -8.3600     0.5110     0.5430 o          1 3M6      -0.715000
     45 O46         -6.6850     1.1840     1.7070 o          1 3M6      -0.715000
     46 H1           3.4930     3.6020    -0.6720 ha         1 3M6       0.134500
     47 H2           5.8350     3.7560    -1.3700 ha         1 3M6       0.121500
     48 H3          -8.3140     1.9120    -1.8230 hc         1 3M6       0.023033
     49 H4          -6.8460     1.8300    -2.8100 hc         1 3M6       0.023033
     50 H5          -7.5820     0.3340    -2.2000 hc         1 3M6       0.023033
     51 H6          -6.3700     2.5520    -0.5080 h1         1 3M6       0.026700
     52 H7          -3.5160     1.2060    -2.2690 h1         1 3M6       0.033700
     53 H8          -4.6730     2.5150    -2.1700 h1         1 3M6       0.033700
     54 H9          -2.7460     3.3700    -1.2400 hc         1 3M6       0.034700
     55 H10         -3.3590     4.0860     1.0090 hc         1 3M6       0.051700
     56 H11         -4.8070     3.9260     0.0390 hc         1 3M6       0.051700
     57 H12         -4.4000     2.6640     1.2300 hc         1 3M6       0.051700
     58 H13         -1.2660     1.6340    -0.9070 h1         1 3M6       0.050700
     59 H14         -1.0410     3.5700     0.7200 h1         1 3M6       0.069700
     60 H15         -1.8370     2.5820     1.9390 h1         1 3M6       0.069700
     61 H16         -0.7450     0.9410     3.0860 h1         1 3M6       0.048033
     62 H17          0.9950     0.6510     2.8850 h1         1 3M6       0.048033
     63 H18          0.4250     2.2150     3.5270 h1         1 3M6       0.048033
     64 H19          2.3810     1.2450     2.0020 hn         1 3M6       0.182000
     65 H20          6.8570     0.5230     1.3280 ha         1 3M6       0.121500
     66 H21          4.4950     0.3630     2.0170 ha         1 3M6       0.134500
     67 H22          0.8840    -0.9290    -0.7600 hn         1 3M6       0.475000
     68 H23          2.8830    -3.2430    -0.1300 ha         1 3M6       0.145000
     69 H24          3.0610    -5.5720    -0.9840 ha         1 3M6       0.136500
     70 H25         -0.9870    -6.3720     0.2600 ha         1 3M6       0.136500
     71 H26         -1.1990    -4.0480     1.1220 ha         1 3M6       0.145000
     72 H27         -0.1520    -2.7400    -2.0060 ha         1 3M6       0.103000
     73 H28         -2.2460    -3.5390    -3.0510 ha         1 3M6       0.113000
     74 H29         -4.4160    -2.5180    -2.4340 ha         1 3M6       0.135000
     75 N27          0.0820    -0.9270    -0.1450 nu         1 3M6      -0.840100
@<TRIPOS>BOND
     1     1    15 1   
     2     1    17 2   
     3     1    18 1   
     4     2     3 ar  
     5     2    18 1   
     6     2    21 ar  
     7     3     4 ar  
     8     3    46 1   
     9     4    19 ar  
    10     4    47 1   
    11     5     6 ar  
    12     5    26 1   
    13     5    40 ar  
    14     6    37 ar  
    15     6    75 1   
    16     7     8 1   
    17     7    48 1   
    18     7    49 1   
    19     7    50 1   
    20     8     9 1   
    21     8    43 1   
    22     8    51 1   
    23     9    10 1   
    24     9    41 1   
    25    10    11 1   
    26    10    52 1   
    27    10    53 1   
    28    11    12 1   
    29    11    13 1   
    30    11    54 1   
    31    12    55 1   
    32    12    56 1   
    33    12    57 1   
    34    13    14 1   
    35    13    26 1   
    36    13    58 1   
    37    14    15 1   
    38    14    59 1   
    39    14    60 1   
    40    15    16 1   
    41    16    61 1   
    42    16    62 1   
    43    16    63 1   
    44    18    64 1   
    45    19    20 ar  
    46    19    22 1   
    47    20    21 ar  
    48    20    65 1   
    49    21    66 1   
    50    22    23 1   
    51    22    24 1   
    52    22    25 1   
    53    27    28 2   
    54    27    29 2   
    55    27    30 1   
    56    27    75 1   
    57    30    31 ar  
    58    30    36 ar  
    59    31    32 ar  
    60    31    68 1   
    61    32    33 ar  
    62    32    69 1   
    63    33    34 1   
    64    33    35 ar  
    65    35    36 ar  
    66    35    70 1   
    67    36    71 1   
    68    37    38 ar  
    69    37    72 1   
    70    38    39 ar  
    71    38    73 1   
    72    39    40 ar  
    73    39    74 1   
    74    40    41 1   
    75    41    42 2   
    76    43    44 1   
    77    43    45 1   
    78    67    75 1   
@<TRIPOS>SUBSTRUCTURE
     1 3M6         1 TEMP              0 ****  ****    0 ROOT
