@<TRIPOS>MOLECULE
3M6
   75    78     1     0     0
SMALL
abcg2


@<TRIPOS>ATOM
      1 C11          1.1200     2.2310     0.8840 c          1 3M6       0.655100
      2 C14          3.5020     1.7130     0.6420 ca         1 3M6       0.037000
      3 C15          3.9680     2.9300     0.1380 ca         1 3M6      -0.161000
      4 C16          5.2150     3.0050    -0.4540 ca         1 3M6      -0.037000
      5 C25         -2.1600    -0.4690    -0.4160 ca         1 3M6       0.201100
      6 C26         -0.9400    -1.1160    -0.6600 ca         1 3M6       0.158000
      7 C01         -7.0470     1.1610    -2.1390 c3         1 3M6      -0.080100
      8 C02         -6.2490     1.4450    -0.8740 c3         1 3M6      -0.033300
      9 N03         -4.8730     0.9620    -1.0010 n          1 3M6      -0.355800
     10 C04         -3.8760     1.8780    -1.5350 c3         1 3M6       0.115000
     11 C05         -3.0460     2.6440    -0.5010 c3         1 3M6      -0.085700
     12 C06         -3.9370     3.2970     0.5520 c3         1 3M6      -0.098100
     13 C07         -1.8710     1.8270     0.0580 c3         1 3M6       0.174300
     14 C08         -1.2260     2.5720     1.2190 c3         1 3M6       0.108000
     15 N09          0.0430     2.0530     1.6830 n          1 3M6      -0.407800
     16 C10          0.0770     1.5490     3.0410 c3         1 3M6       0.089300
     17 O12          1.0750     2.9060    -0.1360 o          1 3M6      -0.640100
     18 N13          2.2760     1.5860     1.2850 ns         1 3M6      -0.170000
     19 C17          6.0270     1.8790    -0.5540 ca         1 3M6      -0.242300
     20 C18          5.5760     0.6720    -0.0350 ca         1 3M6      -0.037000
     21 C19          4.3260     0.5900     0.5500 ca         1 3M6      -0.161000
     22 C20          7.3910     1.9900    -1.1480 c3         1 3M6       0.360300
     23 F21          7.8180     0.8310    -1.6640 f          1 3M6      -0.120667
     24 F22          7.4460     2.9000    -2.1290 f          1 3M6      -0.120667
     25 F23          8.3080     2.3610    -0.2370 f          1 3M6      -0.120667
     26 O24         -2.2640     0.5150     0.5080 os         1 3M6      -0.325100
     27 S28          0.4250    -1.7910     1.4720 sy         1 3M6       1.133600
     28 O29          1.6380    -1.2950     2.1140 o          1 3M6      -0.534000
     29 O30         -0.8290    -1.8360     2.1970 o          1 3M6      -0.534000
     30 C31          0.7600    -3.4140     0.8670 ca         1 3M6      -0.329500
     31 C32          2.0590    -3.7500     0.5030 ca         1 3M6       0.018000
     32 C33          2.3140    -5.0030    -0.0250 ca         1 3M6      -0.180000
     33 C34          1.2600    -5.8860    -0.1790 ca         1 3M6       0.221000
     34 F35          1.5060    -7.0940    -0.6890 f          1 3M6      -0.173000
     35 C36         -0.0370    -5.5660     0.1790 ca         1 3M6      -0.180000
     36 C37         -0.2890    -4.3110     0.7090 ca         1 3M6       0.018000
     37 C38         -0.8370    -2.0700    -1.6650 ca         1 3M6      -0.127000
     38 C39         -1.9480    -2.4400    -2.4010 ca         1 3M6      -0.131000
     39 C40         -3.1740    -1.8730    -2.1020 ca         1 3M6      -0.054000
     40 C41         -3.2820    -0.8770    -1.1350 ca         1 3M6      -0.137600
     41 C42         -4.6590    -0.3520    -0.8700 c          1 3M6       0.581600
     42 O43         -5.5460    -1.1580    -0.6100 o          1 3M6      -0.528000
     43 C44         -6.9390     0.9860     0.4380 c          1 3M6       0.735000
     44 O45         -8.1680     0.7980     0.3700 o          1 3M6      -0.715000
     45 O46         -6.2320     0.9220     1.4600 o          1 3M6      -0.715000
     46 H1           3.3720     3.8260     0.2200 ha         1 3M6       0.134500
     47 H2           5.5480     3.9630    -0.8280 ha         1 3M6       0.121500
     48 H3          -8.0180     1.6510    -2.0950 hc         1 3M6       0.023033
     49 H4          -6.5250     1.5460    -3.0180 hc         1 3M6       0.023033
     50 H5          -7.2130     0.0940    -2.2820 hc         1 3M6       0.023033
     51 H6          -6.1680     2.5310    -0.7790 h1         1 3M6       0.026700
     52 H7          -3.2180     1.3550    -2.2330 h1         1 3M6       0.033700
     53 H8          -4.4140     2.6100    -2.1400 h1         1 3M6       0.033700
     54 H9          -2.5630     3.4480    -1.0690 hc         1 3M6       0.034700
     55 H10         -3.3810     3.9770     1.1970 hc         1 3M6       0.051700
     56 H11         -4.7050     3.9000     0.0660 hc         1 3M6       0.051700
     57 H12         -4.4410     2.5590     1.1740 hc         1 3M6       0.051700
     58 H13         -1.1380     1.7070    -0.7460 h1         1 3M6       0.050700
     59 H14         -1.1170     3.6190     0.9240 h1         1 3M6       0.069700
     60 H15         -1.9050     2.5580     2.0710 h1         1 3M6       0.069700
     61 H16         -0.4210     0.5860     3.1290 h1         1 3M6       0.048033
     62 H17          1.0950     1.4530     3.4090 h1         1 3M6       0.048033
     63 H18         -0.4290     2.2550     3.7010 h1         1 3M6       0.048033
     64 H19          2.1660     0.7340     1.8170 hn         1 3M6       0.182000
     65 H20          6.1820    -0.2230    -0.0900 ha         1 3M6       0.121500
     66 H21          3.9850    -0.3630     0.9350 ha         1 3M6       0.134500
     67 H22          1.0520    -0.6710    -0.3730 hn         1 3M6       0.475000
     68 H23          2.8780    -3.0550     0.6300 ha         1 3M6       0.145000
     69 H24          3.3180    -5.2900    -0.3090 ha         1 3M6       0.136500
     70 H25         -0.8370    -6.2800     0.0480 ha         1 3M6       0.136500
     71 H26         -1.2970    -4.0480     0.9930 ha         1 3M6       0.145000
     72 H27          0.1240    -2.5300    -1.8620 ha         1 3M6       0.103000
     73 H28         -1.8630    -3.1860    -3.1790 ha         1 3M6       0.113000
     74 H29         -4.0570    -2.1840    -2.6440 ha         1 3M6       0.135000
     75 N27          0.1900    -0.8120     0.1460 nu         1 3M6      -0.840100
@<TRIPOS>BOND
     1     1    15 1   
     2     1    17 2   
     3     1    18 1   
     4     2     3 ar  
     5     2    18 1   
     6     2    21 ar  
     7     3     4 ar  
     8     3    46 1   
     9     4    19 ar  
    10     4    47 1   
    11     5     6 ar  
    12     5    26 1   
    13     5    40 ar  
    14     6    37 ar  
    15     6    75 1   
    16     7     8 1   
    17     7    48 1   
    18     7    49 1   
    19     7    50 1   
    20     8     9 1   
    21     8    43 1   
    22     8    51 1   
    23     9    10 1   
    24     9    41 1   
    25    10    11 1   
    26    10    52 1   
    27    10    53 1   
    28    11    12 1   
    29    11    13 1   
    30    11    54 1   
    31    12    55 1   
    32    12    56 1   
    33    12    57 1   
    34    13    14 1   
    35    13    26 1   
    36    13    58 1   
    37    14    15 1   
    38    14    59 1   
    39    14    60 1   
    40    15    16 1   
    41    16    61 1   
    42    16    62 1   
    43    16    63 1   
    44    18    64 1   
    45    19    20 ar  
    46    19    22 1   
    47    20    21 ar  
    48    20    65 1   
    49    21    66 1   
    50    22    23 1   
    51    22    24 1   
    52    22    25 1   
    53    27    28 2   
    54    27    29 2   
    55    27    30 1   
    56    27    75 1   
    57    30    31 ar  
    58    30    36 ar  
    59    31    32 ar  
    60    31    68 1   
    61    32    33 ar  
    62    32    69 1   
    63    33    34 1   
    64    33    35 ar  
    65    35    36 ar  
    66    35    70 1   
    67    36    71 1   
    68    37    38 ar  
    69    37    72 1   
    70    38    39 ar  
    71    38    73 1   
    72    39    40 ar  
    73    39    74 1   
    74    40    41 1   
    75    41    42 2   
    76    43    44 1   
    77    43    45 1   
    78    67    75 1   
@<TRIPOS>SUBSTRUCTURE
     1 3M6         1 TEMP              0 ****  ****    0 ROOT
