@<TRIPOS>MOLECULE
3M7
  100   104     1     0     0
SMALL
bcc


@<TRIPOS>ATOM
      1 C11         30.5790    11.9620    15.0670 ca         1 3M7       0.012800
      2 C10         29.7120    11.5050    16.0180 ca         1 3M7       0.332200
      3 C13         31.9320    10.0230    15.1430 c3         1 3M7       0.122700
      4 C01         31.1690    13.8000    13.4910 ca         1 3M7      -0.103000
      5 C02         30.8890    15.0300    12.9590 ca         1 3M7      -0.110000
      6 C03         29.7670    15.7450    13.4080 ca         1 3M7       0.021400
      7 CL1         29.4370    17.2890    12.7000 cl         1 3M7      -0.101400
      8 C05         28.9400    15.2470    14.3790 ca         1 3M7      -0.076000
      9 C06         29.2270    13.9840    14.9340 ca         1 3M7      -0.138300
     10 C07         30.3430    13.2460    14.4890 ca         1 3M7      -0.015000
     11 C08         28.4140    13.3880    15.9500 ca         1 3M7       0.644600
     12 N09         28.6440    12.2220    16.4480 nb         1 3M7      -0.744000
     13 O12         31.6540    11.3010    14.6060 os         1 3M7      -0.310900
     14 O14         27.3830    14.1270    16.3720 os         1 3M7      -0.436100
     15 C15         26.4190    13.5400    17.2420 c5         1 3M7       0.144100
     16 C16         25.4830    14.6650    17.6350 c5         1 3M7       0.105000
     17 C17         25.4900    12.6110    16.4740 c5         1 3M7      -0.111400
     18 C18         24.6130    13.5790    15.6690 c5         1 3M7       0.028700
     19 C19         23.1910    13.0660    15.5230 c          1 3M7       0.663100
     20 O20         22.4030    13.0950    16.4480 o          1 3M7      -0.568100
     21 N21         22.8810    12.5340    14.3200 ns         1 3M7      -0.548900
     22 N22         24.6430    14.8030    16.4560 n          1 3M7      -0.456800
     23 C23         24.0770    15.9150    15.9590 c          1 3M7       0.666100
     24 O24         23.4490    15.8830    14.9100 o          1 3M7      -0.613100
     25 C25         24.2520    17.2260    16.7350 c3         1 3M7       0.054700
     26 N26         24.1710    18.3380    15.8250 ns         1 3M7      -0.545900
     27 C27         25.0910    18.4540    14.8380 c          1 3M7       0.767100
     28 O28         26.1050    17.7880    14.7930 o          1 3M7      -0.604000
     29 O29         24.7380    19.4020    13.9750 os         1 3M7      -0.446900
     30 C30         25.5520    19.7480    12.8220 c3         1 3M7       0.200800
     31 C31         25.6950    18.5600    11.8790 c3         1 3M7      -0.109433
     32 C32         24.7420    20.8480    12.1450 c3         1 3M7      -0.109433
     33 C33         26.9060    20.2960    13.2560 c3         1 3M7      -0.109433
     34 C34         23.2400    17.4010    17.8740 c3         1 3M7      -0.080400
     35 C35         21.7580    17.3020    17.4760 c3         1 3M7      -0.081400
     36 C36         21.1410    15.9650    17.8780 c3         1 3M7      -0.082400
     37 C37         19.7590    15.6860    17.2930 c3         1 3M7      -0.062400
     38 C38         19.7700    15.6690    15.7520 c3         1 3M7      -0.052200
     39 C39         18.8840    14.6180    15.1610 c2         1 3M7      -0.149200
     40 C40         19.2590    13.6290    14.3450 c2         1 3M7      -0.128200
     41 C41         20.6370    13.4610    13.8430 cx         1 3M7      -0.041500
     42 C42         21.0200    12.6440    12.6550 cx         1 3M7      -0.104400
     43 C43         21.5230    12.2290    14.0110 cx         1 3M7      -0.052900
     44 C44         21.0330    10.9390    14.5800 c2         1 3M7       0.694600
     45 O45         19.7350    10.7480    14.4090 oh         1 3M7      -0.614600
     46 N46         21.7570    10.0600    15.1410 n2         1 3M7      -0.946100
     47 S47         20.4300     7.4630    15.3250 s4         1 3M7       0.615700
     48 O48         19.8870     5.9250    15.2370 oh         1 3M7      -0.583800
     49 O49         19.2080     8.3420    15.3560 o          1 3M7      -0.540200
     50 C50         21.0420     7.4850    17.0020 cx         1 3M7      -0.154400
     51 C51         21.7520     6.3060    17.5820 cx         1 3M7      -0.091400
     52 C52         20.4080     6.7060    18.1070 cx         1 3M7      -0.091400
     53 H101        29.8330    10.5340    16.4820 h4         1 3M7       0.023100
     54 H131        32.8320     9.6690    14.6480 h1         1 3M7       0.043367
     55 H132        32.1120    10.0660    16.2200 h1         1 3M7       0.043367
     56 H133        31.1210     9.3160    14.9480 h1         1 3M7       0.043367
     57 H011        32.0320    13.2560    13.1330 ha         1 3M7       0.153000
     58 H021        31.5250    15.4490    12.1920 ha         1 3M7       0.148000
     59 H051        28.0780    15.8110    14.7100 ha         1 3M7       0.186000
     60 H151        26.9000    13.0660    18.0980 h1         1 3M7       0.088700
     61 H161        24.9010    14.3670    18.5100 h1         1 3M7       0.068700
     62 H162        26.0150    15.5830    17.8800 h1         1 3M7       0.068700
     63 H171        26.0070    11.8930    15.8390 hc         1 3M7       0.077700
     64 H172        24.8910    12.0500    17.1950 hc         1 3M7       0.077700
     65 H181        25.0510    13.7630    14.6830 h1         1 3M7       0.076700
     66 H211        23.5560    12.5650    13.5730 hn         1 3M7       0.323500
     67 H251        25.2460    17.2420    17.1870 h1         1 3M7       0.079700
     68 H261        23.2780    18.7920    15.7020 hn         1 3M7       0.329500
     69 H311        26.1700    18.8930    10.9550 hc         1 3M7       0.049589
     70 H312        26.3090    17.7690    12.3000 hc         1 3M7       0.049589
     71 H313        24.7180    18.1510    11.6170 hc         1 3M7       0.049589
     72 H321        25.2540    21.1740    11.2400 hc         1 3M7       0.049589
     73 H322        23.7510    20.4920    11.8590 hc         1 3M7       0.049589
     74 H323        24.6260    21.7160    12.7950 hc         1 3M7       0.049589
     75 H331        27.4280    20.6950    12.3850 hc         1 3M7       0.049589
     76 H332        26.7850    21.1120    13.9700 hc         1 3M7       0.049589
     77 H333        27.5380    19.5310    13.7000 hc         1 3M7       0.049589
     78 H341        23.4630    16.6630    18.6490 hc         1 3M7       0.053200
     79 H342        23.4550    18.3720    18.3230 hc         1 3M7       0.053200
     80 H351        21.1990    18.1130    17.9480 hc         1 3M7       0.045200
     81 H352        21.6440    17.4550    16.3990 hc         1 3M7       0.045200
     82 H361        21.8050    15.1530    17.5720 hc         1 3M7       0.048700
     83 H362        21.0910    15.9190    18.9700 hc         1 3M7       0.048700
     84 H371        19.4270    14.7140    17.6660 hc         1 3M7       0.039700
     85 H372        19.0320    16.4160    17.6590 hc         1 3M7       0.039700
     86 H381        19.4670    16.6500    15.3730 hc         1 3M7       0.049700
     87 H382        20.7970    15.5220    15.4200 hc         1 3M7       0.049700
     88 H391        17.8340    14.6680    15.4400 ha         1 3M7       0.115000
     89 H401        18.5080    12.9290    14.0010 ha         1 3M7       0.136000
     90 H411        21.2500    14.3470    13.9480 hc         1 3M7       0.095700
     91 H421        20.2730    12.0070    12.1980 hc         1 3M7       0.082200
     92 H422        21.7410    13.0570    11.9590 hc         1 3M7       0.082200
     93 H461        22.7290    10.3430    15.1690 hn         1 3M7       0.401400
     94 H1          19.1500     5.7580    15.8490 ho         1 3M7       0.443000
     95 H2          19.4910     9.8490    14.7570 ho         1 3M7       0.496000
     96 H501        21.4220     8.4750    17.2220 h1         1 3M7       0.137700
     97 H511        21.8080     5.3980    16.9970 hc         1 3M7       0.074700
     98 H512        22.6310     6.5110    18.1780 hc         1 3M7       0.074700
     99 H521        20.3470     7.2040    19.0650 hc         1 3M7       0.074700
    100 H522        19.5670     6.0530    17.9060 hc         1 3M7       0.074700
@<TRIPOS>BOND
     1     1     2 ar  
     2     1    10 ar  
     3     1    13 1   
     4     2    12 ar  
     5     2    53 1   
     6     3    13 1   
     7     3    54 1   
     8     3    55 1   
     9     3    56 1   
    10     4     5 ar  
    11     4    10 ar  
    12     4    57 1   
    13     5     6 ar  
    14     5    58 1   
    15     6     7 1   
    16     6     8 ar  
    17     8     9 ar  
    18     8    59 1   
    19     9    10 ar  
    20     9    11 ar  
    21    11    12 ar  
    22    11    14 1   
    23    14    15 1   
    24    15    16 1   
    25    15    17 1   
    26    15    60 1   
    27    16    22 1   
    28    16    61 1   
    29    16    62 1   
    30    17    18 1   
    31    17    63 1   
    32    17    64 1   
    33    18    19 1   
    34    18    22 1   
    35    18    65 1   
    36    19    20 2   
    37    19    21 1   
    38    21    43 1   
    39    21    66 1   
    40    22    23 1   
    41    23    24 2   
    42    23    25 1   
    43    25    26 1   
    44    25    34 1   
    45    25    67 1   
    46    26    27 1   
    47    26    68 1   
    48    27    28 2   
    49    27    29 1   
    50    29    30 1   
    51    30    31 1   
    52    30    32 1   
    53    30    33 1   
    54    31    69 1   
    55    31    70 1   
    56    31    71 1   
    57    32    72 1   
    58    32    73 1   
    59    32    74 1   
    60    33    75 1   
    61    33    76 1   
    62    33    77 1   
    63    34    35 1   
    64    34    78 1   
    65    34    79 1   
    66    35    36 1   
    67    35    80 1   
    68    35    81 1   
    69    36    37 1   
    70    36    82 1   
    71    36    83 1   
    72    37    38 1   
    73    37    84 1   
    74    37    85 1   
    75    38    39 1   
    76    38    86 1   
    77    38    87 1   
    78    39    40 2   
    79    39    88 1   
    80    40    41 1   
    81    40    89 1   
    82    41    42 1   
    83    41    43 1   
    84    41    90 1   
    85    42    43 1   
    86    42    91 1   
    87    42    92 1   
    88    43    44 1   
    89    44    45 1   
    90    44    46 2   
    91    45    95 1   
    92    46    93 1   
    93    47    48 1   
    94    47    49 2   
    95    47    50 1   
    96    48    94 1   
    97    50    51 1   
    98    50    52 1   
    99    50    96 1   
   100    51    52 1   
   101    51    97 1   
   102    51    98 1   
   103    52    99 1   
   104    52   100 1   
@<TRIPOS>SUBSTRUCTURE
     1 3M7         1 TEMP              0 ****  ****    0 ROOT
