@<TRIPOS>MOLECULE
3M7
  100   104     1     0     0
SMALL
No Charge or Current Charge


@<TRIPOS>ATOM
      1 C11         29.9080     9.8090    15.6190 ca         1 3M7       0.078100
      2 C10         29.6610    10.4000    16.8840 ca         1 3M7       0.266900
      3 C13         31.1180     7.8940    16.6110 c3         1 3M7       0.145900
      4 C01         29.6380     9.9560    13.1740 ca         1 3M7      -0.085000
      5 C02         29.1500    10.6460    12.0510 ca         1 3M7      -0.092000
      6 C03         28.4550    11.8530    12.2160 ca         1 3M7       0.113000
      7 Cl1         27.8450    12.7150    10.8090 cl         1 3M7      -0.193000
      8 C05         28.2420    12.3760    13.5010 ca         1 3M7      -0.058000
      9 C06         28.7220    11.6870    14.6380 ca         1 3M7      -0.073000
     10 C07         29.4280    10.4730    14.4700 ca         1 3M7      -0.015000
     11 C08         28.5020    12.1820    15.9480 ca         1 3M7       0.579300
     12 N09         28.9820    11.5590    17.0490 nb         1 3M7      -0.744000
     13 O12         30.6030     8.6170    15.4780 os         1 3M7      -0.334100
     14 O14         27.8270    13.3800    16.0880 os         1 3M7      -0.459300
     15 C15         26.8050    13.2970    17.1310 c5         1 3M7       0.167300
     16 C16         26.1070    14.6870    17.1900 c5         1 3M7       0.105000
     17 C17         25.6440    12.3770    16.6520 c5         1 3M7      -0.111400
     18 C18         24.9750    13.2340    15.5330 c5         1 3M7       0.028700
     19 C19         23.4870    12.7930    15.3500 c          1 3M7       0.596100
     20 O20         22.6830    12.5450    16.2380 o          1 3M7      -0.568100
     21 N21         23.1840    12.6990    14.0040 ns         1 3M7      -0.481900
     22 N22         25.1240    14.6120    16.0790 n          1 3M7      -0.389800
     23 C23         24.6780    15.7460    15.3640 c          1 3M7       0.599100
     24 O24         24.2860    15.6200    14.2080 o          1 3M7      -0.613100
     25 C25         24.6280    17.1310    16.0840 c3         1 3M7       0.054700
     26 N26         24.3300    18.1970    15.1040 ns         1 3M7      -0.478900
     27 C27         24.5490    19.5310    15.2890 c          1 3M7       0.651100
     28 O28         25.0590    20.0200    16.2840 o          1 3M7      -0.555000
     29 O29         24.1200    20.1880    14.1680 os         1 3M7      -0.470100
     30 C30         24.1980    21.6260    14.0310 c3         1 3M7       0.224000
     31 C31         25.6820    22.0740    14.0710 c3         1 3M7      -0.109433
     32 C32         23.6010    21.9070    12.6340 c3         1 3M7      -0.109433
     33 C33         23.3290    22.3010    15.1230 c3         1 3M7      -0.109433
     34 C34         23.6500    17.1840    17.2990 c3         1 3M7      -0.080400
     35 C35         22.1320    17.0590    16.9790 c3         1 3M7      -0.081400
     36 C36         21.6460    15.6100    16.7360 c3         1 3M7      -0.082400
     37 C37         20.1270    15.4660    16.4880 c3         1 3M7      -0.062400
     38 C38         19.6510    15.9610    15.0970 c3         1 3M7      -0.052200
     39 C39         18.9940    14.8600    14.2770 c2         1 3M7      -0.199200
     40 C40         19.6050    13.9620    13.4810 c2         1 3M7      -0.178200
     41 C41         21.0780    13.8460    13.2490 cx         1 3M7      -0.041500
     42 C42         21.6000    13.0550    12.0760 cx         1 3M7      -0.104400
     43 C43         21.8350    12.5440    13.4820 cx         1 3M7      -0.052900
     44 C44         21.1640    11.2450    13.8850 c2         1 3M7       0.694600
     45 O45         20.1940    11.2370    14.7710 oh         1 3M7      -0.653600
     46 N46         21.5750    10.1360    13.4260 n2         1 3M7      -0.946100
     47 S47         21.2990     7.9080    16.1260 s4         1 3M7       0.642500
     48 O48         21.1350     7.1680    17.6360 oh         1 3M7      -0.622800
     49 O49         20.0900     8.7870    15.8900 o          1 3M7      -0.567000
     50 C50         22.7040     9.0470    16.7330 cx         1 3M7      -0.154400
     51 C51         23.7810     8.5550    17.6800 cx         1 3M7      -0.091400
     52 C52         22.7630     9.5730    18.1540 cx         1 3M7      -0.091400
     53 H101        30.0150     9.9380    17.8040 h4         1 3M7       0.023100
     54 H131        31.6300     6.9830    16.2790 h1         1 3M7       0.043367
     55 H132        31.8380     8.5050    17.1700 h1         1 3M7       0.043367
     56 H133        30.3050     7.6000    17.2880 h1         1 3M7       0.043367
     57 H011        30.1780     9.0230    13.0290 ha         1 3M7       0.135000
     58 H021        29.3120    10.2460    11.0530 ha         1 3M7       0.130000
     59 H051        27.7060    13.3170    13.6020 ha         1 3M7       0.168000
     60 H151        27.2410    13.0150    18.1000 h1         1 3M7       0.088700
     61 H161        25.5970    14.8250    18.1520 h1         1 3M7       0.068700
     62 H162        26.8310    15.5030    17.0610 h1         1 3M7       0.068700
     63 H171        25.9700    11.3940    16.2950 hc         1 3M7       0.077700
     64 H172        24.9580    12.1930    17.4870 hc         1 3M7       0.077700
     65 H181        25.5130    13.1340    14.5820 h1         1 3M7       0.076700
     66 H211        23.9290    12.9520    13.3650 hn         1 3M7       0.323500
     67 H251        25.6410    17.3150    16.4630 h1         1 3M7       0.079700
     68 H261        23.9270    17.9340    14.2130 hn         1 3M7       0.329500
     69 H311        25.7740    23.1170    13.7440 hc         1 3M7       0.049589
     70 H312        26.1020    22.0150    15.0810 hc         1 3M7       0.049589
     71 H313        26.2940    21.4550    13.4040 hc         1 3M7       0.049589
     72 H321        23.6070    22.9820    12.4160 hc         1 3M7       0.049589
     73 H322        24.1800    21.4000    11.8530 hc         1 3M7       0.049589
     74 H323        22.5640    21.5550    12.5750 hc         1 3M7       0.049589
     75 H331        23.1960    23.3660    14.9000 hc         1 3M7       0.049589
     76 H332        22.3360    21.8390    15.1710 hc         1 3M7       0.049589
     77 H333        23.7910    22.2340    16.1140 hc         1 3M7       0.049589
     78 H341        23.9250    16.4180    18.0330 hc         1 3M7       0.053200
     79 H342        23.8030    18.1420    17.8110 hc         1 3M7       0.053200
     80 H351        21.5730    17.4630    17.8320 hc         1 3M7       0.045200
     81 H352        21.8760    17.6910    16.1200 hc         1 3M7       0.045200
     82 H361        22.1690    15.1820    15.8770 hc         1 3M7       0.048700
     83 H362        21.9150    14.9990    17.6060 hc         1 3M7       0.048700
     84 H371        19.8640    14.4060    16.5990 hc         1 3M7       0.039700
     85 H372        19.5770    15.9970    17.2740 hc         1 3M7       0.039700
     86 H381        18.9410    16.7860    15.2380 hc         1 3M7       0.049700
     87 H382        20.4910    16.4000    14.5450 hc         1 3M7       0.049700
     88 H391        17.9070    14.8380    14.3700 ha         1 3M7       0.165000
     89 H401        18.9940    13.2290    12.9490 ha         1 3M7       0.186000
     90 H411        21.6270    14.7560    13.4760 hc         1 3M7       0.095700
     91 H421        20.8770    12.5280    11.4570 hc         1 3M7       0.082200
     92 H422        22.4440    13.4650    11.5280 hc         1 3M7       0.082200
     93 H461        22.3500    10.3470    12.7820 hn         1 3M7       0.401400
     94 H1          21.1760     6.2120    17.4320 ho         1 3M7       0.482000
     95 H2          20.1730    10.2810    15.0220 ho         1 3M7       0.535000
     96 H501        23.0080     9.7280    15.9400 h1         1 3M7       0.137700
     97 H511        23.7100     7.5450    18.0750 hc         1 3M7       0.074700
     98 H512        24.7970     8.9010    17.5100 hc         1 3M7       0.074700
     99 H521        23.1020    10.5950    18.2990 hc         1 3M7       0.074700
    100 H522        22.0110     9.2480    18.8680 hc         1 3M7       0.074700
@<TRIPOS>BOND
     1     1     2 ar  
     2     1    10 ar  
     3     1    13 1   
     4     2    12 ar  
     5     2    53 1   
     6     3    13 1   
     7     3    54 1   
     8     3    55 1   
     9     3    56 1   
    10     4     5 ar  
    11     4    10 ar  
    12     4    57 1   
    13     5     6 ar  
    14     5    58 1   
    15     6     7 1   
    16     6     8 ar  
    17     8     9 ar  
    18     8    59 1   
    19     9    10 ar  
    20     9    11 ar  
    21    11    12 ar  
    22    11    14 1   
    23    14    15 1   
    24    15    16 1   
    25    15    17 1   
    26    15    60 1   
    27    16    22 1   
    28    16    61 1   
    29    16    62 1   
    30    17    18 1   
    31    17    63 1   
    32    17    64 1   
    33    18    19 1   
    34    18    22 1   
    35    18    65 1   
    36    19    20 2   
    37    19    21 1   
    38    21    43 1   
    39    21    66 1   
    40    22    23 1   
    41    23    24 2   
    42    23    25 1   
    43    25    26 1   
    44    25    34 1   
    45    25    67 1   
    46    26    27 1   
    47    26    68 1   
    48    27    28 2   
    49    27    29 1   
    50    29    30 1   
    51    30    31 1   
    52    30    32 1   
    53    30    33 1   
    54    31    69 1   
    55    31    70 1   
    56    31    71 1   
    57    32    72 1   
    58    32    73 1   
    59    32    74 1   
    60    33    75 1   
    61    33    76 1   
    62    33    77 1   
    63    34    35 1   
    64    34    78 1   
    65    34    79 1   
    66    35    36 1   
    67    35    80 1   
    68    35    81 1   
    69    36    37 1   
    70    36    82 1   
    71    36    83 1   
    72    37    38 1   
    73    37    84 1   
    74    37    85 1   
    75    38    39 1   
    76    38    86 1   
    77    38    87 1   
    78    39    40 2   
    79    39    88 1   
    80    40    41 1   
    81    40    89 1   
    82    41    42 1   
    83    41    43 1   
    84    41    90 1   
    85    42    43 1   
    86    42    91 1   
    87    42    92 1   
    88    43    44 1   
    89    44    45 1   
    90    44    46 2   
    91    45    95 1   
    92    46    93 1   
    93    47    48 1   
    94    47    49 2   
    95    47    50 1   
    96    48    94 1   
    97    50    51 1   
    98    50    52 1   
    99    50    96 1   
   100    51    52 1   
   101    51    97 1   
   102    51    98 1   
   103    52    99 1   
   104    52   100 1   
@<TRIPOS>SUBSTRUCTURE
     1 3M7         1 TEMP              0 ****  ****    0 ROOT
