@<TRIPOS>MOLECULE
3M8
   24    24     1     0     0
SMALL
abcg2


@<TRIPOS>ATOM
      1 OAQ         -5.2390    -1.0650    -0.0340 o          1 3M8      -0.688867
      2 SAN         -4.1540    -0.0680    -0.0240 s6         1 3M8       1.321600
      3 OAO         -4.0910     0.7480    -1.2520 o          1 3M8      -0.688867
      4 OAP         -4.1050     0.7380     1.2110 o          1 3M8      -0.688867
      5 CAM         -2.6310    -1.0440    -0.0200 c3         1 3M8      -0.349400
      6 CAL         -1.4080    -0.1460     0.0100 c3         1 3M8       0.099600
      7 SAK          0.0570    -1.2150    -0.0150 ss         1 3M8      -0.136000
      8 CAB          1.3900    -0.0850     0.0380 ca         1 3M8       0.011000
      9 CAC          1.2370     1.2890     0.0930 ca         1 3M8      -0.194000
     10 CAD          2.3590     2.1220     0.1330 ca         1 3M8       0.207100
     11 OAI          2.1330     3.4330     0.1850 oh         1 3M8      -0.519100
     12 CAE          3.6490     1.5920     0.1160 ca         1 3M8      -0.302000
     13 CAF          3.7770     0.2260     0.0610 ca         1 3M8       0.264000
     14 FAH          4.9930    -0.3130     0.0440 f          1 3M8      -0.173000
     15 CAA          2.6880    -0.6370     0.0210 ca         1 3M8      -0.124000
     16 CAG          2.9050    -2.0360    -0.0360 cg         1 3M8       0.353000
     17 NAJ          3.0740    -3.1760    -0.0830 n1         1 3M8      -0.467000
     18 H1          -2.6640    -1.6970     0.8530 h1         1 3M8       0.081700
     19 H2          -2.6440    -1.6680    -0.9160 h1         1 3M8       0.081700
     20 H3          -1.3930     0.5090    -0.8600 h1         1 3M8       0.079700
     21 H4          -1.4030     0.4570     0.9180 h1         1 3M8       0.079700
     22 H5           0.2590     1.7480     0.1080 ha         1 3M8       0.155000
     23 H6           2.9580     3.9320     0.2080 ho         1 3M8       0.466000
     24 H7           4.5280     2.2240     0.1460 ha         1 3M8       0.127000
@<TRIPOS>BOND
     1     1     2 1   
     2     2     3 1   
     3     2     4 1   
     4     2     5 1   
     5     5     6 1   
     6     5    18 1   
     7     5    19 1   
     8     6     7 1   
     9     6    20 1   
    10     6    21 1   
    11     7     8 1   
    12     8     9 ar  
    13     8    15 ar  
    14     9    10 ar  
    15     9    22 1   
    16    10    11 1   
    17    10    12 ar  
    18    11    23 1   
    19    12    13 ar  
    20    12    24 1   
    21    13    14 1   
    22    13    15 ar  
    23    15    16 1   
    24    16    17 3   
@<TRIPOS>SUBSTRUCTURE
     1 3M8         1 TEMP              0 ****  ****    0 ROOT
