@<TRIPOS>MOLECULE
3M8
   24    24     1     0     0
SMALL
No Charge or Current Charge


@<TRIPOS>ATOM
      1 OAQ         -5.2640    -1.1250    -0.2800 o          1 3M8      -0.688867
      2 SAN         -4.2030    -0.1080    -0.2880 s6         1 3M8       1.321600
      3 OAO         -3.9230     0.4730    -1.6080 o          1 3M8      -0.688867
      4 OAP         -4.2850     0.8690     0.8070 o          1 3M8      -0.688867
      5 CAM         -2.7180    -1.0480     0.0890 c3         1 3M8      -0.349400
      6 CAL         -1.4630    -0.1560     0.1320 c3         1 3M8       0.099600
      7 SAK          0.0190    -1.1870     0.5190 ss         1 3M8      -0.136000
      8 CAB          1.4340    -0.0920     0.2990 ca         1 3M8       0.011000
      9 CAC          1.2980     1.3030     0.4510 ca         1 3M8      -0.194000
     10 CAD          2.4000     2.1510     0.2830 ca         1 3M8       0.207100
     11 OAI          2.2480     3.4920     0.4350 oh         1 3M8      -0.519100
     12 CAE          3.6530     1.6230    -0.0350 ca         1 3M8      -0.302000
     13 CAF          3.8050     0.2380    -0.1820 ca         1 3M8       0.264000
     14 FAH          5.0290    -0.2520    -0.4870 f          1 3M8      -0.173000
     15 CAA          2.7060    -0.6280    -0.0160 ca         1 3M8      -0.124000
     16 CAG          2.8970    -2.0430    -0.1730 cg         1 3M8       0.353000
     17 NAJ          3.0650    -3.1920    -0.3040 n1         1 3M8      -0.467000
     18 H1          -2.8880    -1.5250     1.0590 h1         1 3M8       0.081700
     19 H2          -2.6260    -1.8110    -0.6890 h1         1 3M8       0.081700
     20 H3          -1.3100     0.3340    -0.8390 h1         1 3M8       0.079700
     21 H4          -1.5770     0.6160     0.9040 h1         1 3M8       0.079700
     22 H5           0.3430     1.7470     0.7130 ha         1 3M8       0.155000
     23 H6           3.1190     3.9150     0.2820 ho         1 3M8       0.466000
     24 H7           4.5150     2.2720    -0.1680 ha         1 3M8       0.127000
@<TRIPOS>BOND
     1     1     2 1   
     2     2     3 1   
     3     2     4 1   
     4     2     5 1   
     5     5     6 1   
     6     5    18 1   
     7     5    19 1   
     8     6     7 1   
     9     6    20 1   
    10     6    21 1   
    11     7     8 1   
    12     8     9 ar  
    13     8    15 ar  
    14     9    10 ar  
    15     9    22 1   
    16    10    11 1   
    17    10    12 ar  
    18    11    23 1   
    19    12    13 ar  
    20    12    24 1   
    21    13    14 1   
    22    13    15 ar  
    23    15    16 1   
    24    16    17 3   
@<TRIPOS>SUBSTRUCTURE
     1 3M8         1 TEMP              0 ****  ****    0 ROOT
