@<TRIPOS>MOLECULE
3M9
   55    58     1     0     0
SMALL
abcg2


@<TRIPOS>ATOM
      1 C01         -0.4750     1.5560    -0.4830 c3         1 3M9       0.099300
      2 N02         -0.7970     1.0390    -1.8040 na         1 3M9       0.138800
      3 C09         -0.7040    -0.2250    -2.2630 cc         1 3M9      -0.199300
      4 C10         -1.1920    -0.1370    -3.5410 cd         1 3M9       0.195900
      5 N11         -1.5500     1.1410    -3.7760 nd         1 3M9      -0.357000
      6 N12         -1.3070     1.8410    -2.7220 nc         1 3M9      -0.216800
      7 C23         -0.1840    -1.3870    -1.4900 c3         1 3M9       0.164300
      8 N24          1.1970    -1.2080    -1.1030 ns         1 3M9      -0.517900
      9 C25          1.6380    -1.3590     0.1650 c          1 3M9       0.622700
     10 C26          3.0910    -1.0980     0.3740 ca         1 3M9      -0.164600
     11 O27          0.9090    -1.6830     1.0900 o          1 3M9      -0.592100
     12 C28          3.7970    -0.1680    -0.3840 ca         1 3M9      -0.040500
     13 C29          5.1390     0.0750    -0.1400 ca         1 3M9      -0.161000
     14 C30          5.7620    -0.6290     0.8720 ca         1 3M9       0.196000
     15 C31          5.0900    -1.5540     1.6500 ca         1 3M9      -0.161000
     16 C32          3.7460    -1.7740     1.4010 ca         1 3M9      -0.040500
     17 F33          7.0610    -0.4060     1.1110 f          1 3M9      -0.174000
     18 C03         -1.7570     1.9540     0.2550 c3         1 3M9      -0.037100
     19 C13         -2.7400     0.8170     0.2680 ca         1 3M9      -0.099300
     20 C14         -2.5750    -0.2400     1.1270 ca         1 3M9      -0.088000
     21 C15         -3.4420    -1.3550     1.0980 ca         1 3M9      -0.041000
     22 C16         -4.5080    -1.3760     0.1620 ca         1 3M9      -0.034000
     23 C17         -4.6640    -0.2760    -0.7130 ca         1 3M9      -0.100000
     24 C18         -3.8040     0.7860    -0.6630 ca         1 3M9      -0.097000
     25 C19         -3.2750    -2.4570     1.9710 ca         1 3M9      -0.090000
     26 C20         -4.1280    -3.5250     1.9180 ca         1 3M9      -0.112000
     27 C21         -5.1910    -3.5430     0.9890 ca         1 3M9      -0.104000
     28 C22         -5.3760    -2.4930     0.1310 ca         1 3M9      -0.103000
     29 C04          0.5360     2.6910    -0.5940 c3         1 3M9      -0.174400
     30 C05          1.1450     2.9960     0.7570 c          1 3M9       0.598100
     31 N06          1.2150     4.3130     1.0240 ns         1 3M9      -0.386400
     32 O07          1.5190     2.1260     1.5200 o          1 3M9      -0.561100
     33 O08          1.9220     4.7520     2.1000 oh         1 3M9      -0.421100
     34 H1          -0.0100     0.7370     0.0630 h1         1 3M9       0.100700
     35 H2          -1.2980    -0.9160    -4.2790 h4         1 3M9       0.049100
     36 H3          -0.7760    -1.5470    -0.5890 h1         1 3M9       0.080700
     37 H4          -0.2950    -2.2820    -2.1050 h1         1 3M9       0.080700
     38 H5           1.8690    -1.1140    -1.8480 hn         1 3M9       0.319500
     39 H6           3.3080     0.4020    -1.1630 ha         1 3M9       0.124500
     40 H7           5.6870     0.8050    -0.7200 ha         1 3M9       0.136000
     41 H8           5.6050    -2.0870     2.4380 ha         1 3M9       0.136000
     42 H9           3.2070    -2.4890     2.0070 ha         1 3M9       0.124500
     43 H10         -1.4860     2.2320     1.2750 hc         1 3M9       0.066700
     44 H11         -2.1920     2.8400    -0.2130 hc         1 3M9       0.066700
     45 H12         -1.7570    -0.2350     1.8390 ha         1 3M9       0.127000
     46 H13         -5.4750    -0.2860    -1.4310 ha         1 3M9       0.116000
     47 H14         -3.9350     1.6160    -1.3460 ha         1 3M9       0.122000
     48 H15         -2.4590    -2.4420     2.6830 ha         1 3M9       0.122000
     49 H16         -3.9910    -4.3620     2.5890 ha         1 3M9       0.114000
     50 H17         -5.8590    -4.3940     0.9570 ha         1 3M9       0.112000
     51 H18         -6.1910    -2.5060    -0.5820 ha         1 3M9       0.113000
     52 H19          1.3540     2.3850    -1.2520 hc         1 3M9       0.079200
     53 H20          0.0750     3.5710    -1.0460 hc         1 3M9       0.079200
     54 H21          1.0260     5.0160     0.3230 hn         1 3M9       0.338500
     55 H22          1.2730     4.9200     2.7960 ho         1 3M9       0.448000
@<TRIPOS>BOND
     1     1     2 1   
     2     1    18 1   
     3     1    29 1   
     4     1    34 1   
     5     2     3 1   
     6     2     6 1   
     7     3     4 2   
     8     3     7 1   
     9     4     5 1   
    10     4    35 1   
    11     5     6 2   
    12     7     8 1   
    13     7    36 1   
    14     7    37 1   
    15     8     9 1   
    16     8    38 1   
    17     9    10 1   
    18     9    11 2   
    19    10    12 ar  
    20    10    16 ar  
    21    12    13 ar  
    22    12    39 1   
    23    13    14 ar  
    24    13    40 1   
    25    14    15 ar  
    26    14    17 1   
    27    15    16 ar  
    28    15    41 1   
    29    16    42 1   
    30    18    19 1   
    31    18    43 1   
    32    18    44 1   
    33    19    20 ar  
    34    19    24 ar  
    35    20    21 ar  
    36    20    45 1   
    37    21    22 ar  
    38    21    25 ar  
    39    22    23 ar  
    40    22    28 ar  
    41    23    24 ar  
    42    23    46 1   
    43    24    47 1   
    44    25    26 ar  
    45    25    48 1   
    46    26    27 ar  
    47    26    49 1   
    48    27    28 ar  
    49    27    50 1   
    50    28    51 1   
    51    29    30 1   
    52    29    52 1   
    53    29    53 1   
    54    30    31 1   
    55    30    32 2   
    56    31    33 1   
    57    31    54 1   
    58    33    55 1   
@<TRIPOS>SUBSTRUCTURE
     1 3M9         1 TEMP              0 ****  ****    0 ROOT
