@<TRIPOS>MOLECULE
3M9
   55    58     1     0     0
SMALL
No Charge or Current Charge


@<TRIPOS>ATOM
      1 C01         -0.4690     1.7420    -0.5950 c3         1 3M9       0.099300
      2 N02         -0.7210     1.2700    -1.9790 na         1 3M9       0.138800
      3 C09         -0.6460    -0.0190    -2.4620 cc         1 3M9      -0.199300
      4 C10         -0.9970     0.1120    -3.7760 cd         1 3M9       0.195900
      5 N11         -1.2650     1.4370    -4.0470 nd         1 3M9      -0.357000
      6 N12         -1.1020     2.1410    -2.9600 nc         1 3M9      -0.216800
      7 C23         -0.2820    -1.2520    -1.6840 c3         1 3M9       0.164300
      8 N24          1.1140    -1.2150    -1.2490 ns         1 3M9      -0.517900
      9 C25          1.5470    -1.4570     0.0370 c          1 3M9       0.622700
     10 C26          3.0340    -1.3240     0.2900 ca         1 3M9      -0.164600
     11 O27          0.7620    -1.7550     0.9250 o          1 3M9      -0.592100
     12 C28          3.9450    -0.9450    -0.7290 ca         1 3M9      -0.040500
     13 C29          5.3180    -0.8280    -0.4500 ca         1 3M9      -0.161000
     14 C30          5.7970    -1.0850     0.8410 ca         1 3M9       0.196000
     15 C31          4.9120    -1.4590     1.8600 ca         1 3M9      -0.161000
     16 C32          3.5380    -1.5770     1.5880 ca         1 3M9      -0.040500
     17 F33          7.1170    -0.9710     1.1040 f          1 3M9      -0.174000
     18 C03         -1.7930     2.0630     0.1470 c3         1 3M9      -0.037100
     19 C13         -2.7150     0.8500     0.2090 ca         1 3M9      -0.099300
     20 C14         -2.4690    -0.1740     1.1440 ca         1 3M9      -0.088000
     21 C15         -3.2860    -1.3190     1.1760 ca         1 3M9      -0.041000
     22 C16         -4.3640    -1.4390     0.2720 ca         1 3M9      -0.034000
     23 C17         -4.6140    -0.4130    -0.6580 ca         1 3M9      -0.100000
     24 C18         -3.7910     0.7250    -0.6900 ca         1 3M9      -0.097000
     25 C19         -3.0290    -2.3480     2.1010 ca         1 3M9      -0.090000
     26 C20         -3.8470    -3.4920     2.1270 ca         1 3M9      -0.112000
     27 C21         -4.9220    -3.6100     1.2300 ca         1 3M9      -0.104000
     28 C22         -5.1800    -2.5860     0.3020 ca         1 3M9      -0.103000
     29 C04          0.5550     2.9090    -0.5550 c3         1 3M9      -0.174400
     30 C05          1.0430     3.1910     0.8660 c          1 3M9       0.598100
     31 N06          0.6350     4.4050     1.4060 ns         1 3M9      -0.386400
     32 O07          1.7570     2.4050     1.4730 o          1 3M9      -0.561100
     33 O08          1.2350     4.9190     2.6200 oh         1 3M9      -0.421100
     34 H1          -0.0070     0.9060    -0.0570 h1         1 3M9       0.100700
     35 H2          -1.0750    -0.6590    -4.5330 h4         1 3M9       0.049100
     36 H3          -0.9540    -1.3480    -0.8210 h1         1 3M9       0.080700
     37 H4          -0.4300    -2.1390    -2.3150 h1         1 3M9       0.080700
     38 H5           1.8190    -0.9870    -1.9360 hn         1 3M9       0.319500
     39 H6           3.6080    -0.7350    -1.7420 ha         1 3M9       0.124500
     40 H7           6.0120    -0.5370    -1.2350 ha         1 3M9       0.136000
     41 H8           5.2900    -1.6560     2.8600 ha         1 3M9       0.136000
     42 H9           2.8650    -1.8670     2.3920 ha         1 3M9       0.124500
     43 H10         -1.5740     2.4000     1.1670 hc         1 3M9       0.066700
     44 H11         -2.2950     2.9030    -0.3500 hc         1 3M9       0.066700
     45 H12         -1.6320    -0.0880     1.8340 ha         1 3M9       0.127000
     46 H13         -5.4400    -0.4990    -1.3600 ha         1 3M9       0.116000
     47 H14         -3.9850     1.5050    -1.4240 ha         1 3M9       0.122000
     48 H15         -2.1970    -2.2650     2.7970 ha         1 3M9       0.122000
     49 H16         -3.6470    -4.2860     2.8430 ha         1 3M9       0.114000
     50 H17         -5.5530    -4.4950     1.2510 ha         1 3M9       0.112000
     51 H18         -6.0130    -2.6850    -0.3910 ha         1 3M9       0.113000
     52 H19          1.4270     2.6190    -1.1530 hc         1 3M9       0.079200
     53 H20          0.1020     3.8080    -0.9890 hc         1 3M9       0.079200
     54 H21          0.1780     5.0910     0.8050 hn         1 3M9       0.338500
     55 H22          0.4600     5.1690     3.1760 ho         1 3M9       0.448000
@<TRIPOS>BOND
     1     1     2 1   
     2     1    18 1   
     3     1    29 1   
     4     1    34 1   
     5     2     3 1   
     6     2     6 1   
     7     3     4 2   
     8     3     7 1   
     9     4     5 1   
    10     4    35 1   
    11     5     6 2   
    12     7     8 1   
    13     7    36 1   
    14     7    37 1   
    15     8     9 1   
    16     8    38 1   
    17     9    10 1   
    18     9    11 2   
    19    10    12 ar  
    20    10    16 ar  
    21    12    13 ar  
    22    12    39 1   
    23    13    14 ar  
    24    13    40 1   
    25    14    15 ar  
    26    14    17 1   
    27    15    16 ar  
    28    15    41 1   
    29    16    42 1   
    30    18    19 1   
    31    18    43 1   
    32    18    44 1   
    33    19    20 ar  
    34    19    24 ar  
    35    20    21 ar  
    36    20    45 1   
    37    21    22 ar  
    38    21    25 ar  
    39    22    23 ar  
    40    22    28 ar  
    41    23    24 ar  
    42    23    46 1   
    43    24    47 1   
    44    25    26 ar  
    45    25    48 1   
    46    26    27 ar  
    47    26    49 1   
    48    27    28 ar  
    49    27    50 1   
    50    28    51 1   
    51    29    30 1   
    52    29    52 1   
    53    29    53 1   
    54    30    31 1   
    55    30    32 2   
    56    31    33 1   
    57    31    54 1   
    58    33    55 1   
@<TRIPOS>SUBSTRUCTURE
     1 3M9         1 TEMP              0 ****  ****    0 ROOT
