@<TRIPOS>MOLECULE
3MA
   19    20     1     0     0
SMALL
abcg2


@<TRIPOS>ATOM
      1 N9           1.3260    -1.5180     0.0690 na         1 3MA      -0.325800
      2 C4           0.7280    -0.3170     0.0290 cc         1 3MA      -0.006000
      3 N3           1.2420     0.9290    -0.0020 na         1 3MA      -0.173500
      4 CN3          2.6790     1.1630     0.0030 c3         1 3MA       0.031900
      5 C2           0.3380     1.9230    -0.0400 cc         1 3MA       0.649400
      6 N1          -0.9520     1.7700    -0.0540 nd         1 3MA      -0.767000
      7 C6          -1.4920     0.5410    -0.0210 cd         1 3MA       0.762900
      8 N6          -2.8100     0.4250    -0.0320 nv         1 3MA      -0.971900
      9 C5          -0.6300    -0.5670     0.0230 cc         1 3MA      -0.068600
     10 N7          -0.8650    -1.9110     0.0580 nc         1 3MA      -0.502100
     11 C8           0.3170    -2.4440     0.0850 cd         1 3MA       0.441700
     12 HN9          2.3110    -1.7290     0.0900 hn         1 3MA       0.393000
     13 H31          2.8680     2.2280    -0.0670 h1         1 3MA       0.084700
     14 H32          3.1150     0.7900     0.9260 h1         1 3MA       0.084700
     15 H33          3.1360     0.6750    -0.8540 h1         1 3MA       0.084700
     16 H2           0.7340     2.9290    -0.0480 h5         1 3MA       0.089100
     17 HN61        -3.3860     1.2490    -0.0520 hn         1 3MA       0.543500
     18 HN62        -3.2470    -0.4790     0.0040 hn         1 3MA       0.543500
     19 H8           0.5330    -3.4990     0.1180 h5         1 3MA       0.105800
@<TRIPOS>BOND
     1     1     2 2   
     2     1    11 1   
     3     1    12 1   
     4     2     3 1   
     5     2     9 1   
     6     3     4 1   
     7     3     5 1   
     8     4    13 1   
     9     4    14 1   
    10     4    15 1   
    11     5     6 2   
    12     5    16 1   
    13     6     7 1   
    14     7     8 1   
    15     7     9 2   
    16     8    17 1   
    17     8    18 1   
    18     9    10 1   
    19    10    11 2   
    20    11    19 1   
@<TRIPOS>SUBSTRUCTURE
     1 3MA         1 TEMP              0 ****  ****    0 ROOT
