@<TRIPOS>MOLECULE
3MA
   19    20     1     0     0
SMALL
No Charge or Current Charge


@<TRIPOS>ATOM
      1 N9           1.3240    -1.5050     0.0770 na         1 3MA      -0.325800
      2 C4           0.6800    -0.3140     0.0030 cc         1 3MA      -0.006000
      3 N3           1.2640     0.9250    -0.0160 na         1 3MA      -0.173500
      4 CN3          2.7220     1.1580     0.0330 c3         1 3MA       0.031900
      5 C2           0.3010     1.9690    -0.0860 cc         1 3MA       0.649400
      6 N1          -1.0490     1.7800    -0.1310 nd         1 3MA      -0.767000
      7 C6          -1.5300     0.4900    -0.1190 cd         1 3MA       0.762900
      8 N6          -2.8590     0.4210    -0.1640 nv         1 3MA      -0.971900
      9 C5          -0.6490    -0.5630    -0.0430 cc         1 3MA      -0.068600
     10 N7          -0.8860    -1.9240     0.0020 nc         1 3MA      -0.502100
     11 C8           0.3390    -2.4970     0.0750 cd         1 3MA       0.441700
     12 HN9          2.3210    -1.6730     0.1260 hn         1 3MA       0.393000
     13 H31          2.9420     2.2320    -0.0030 h1         1 3MA       0.084700
     14 H32          3.1310     0.7440     0.9640 h1         1 3MA       0.084700
     15 H33          3.2040     0.6690    -0.8220 h1         1 3MA       0.084700
     16 H2           0.7010     2.9750    -0.0990 h5         1 3MA       0.089100
     17 HN61        -3.3230     1.2700     0.1290 hn         1 3MA       0.543500
     18 HN62        -3.2580    -0.4420     0.1820 hn         1 3MA       0.543500
     19 H8           0.5690    -3.5560     0.1270 h5         1 3MA       0.105800
@<TRIPOS>BOND
     1     1     2 2   
     2     1    11 1   
     3     1    12 1   
     4     2     3 1   
     5     2     9 1   
     6     3     4 1   
     7     3     5 1   
     8     4    13 1   
     9     4    14 1   
    10     4    15 1   
    11     5     6 2   
    12     5    16 1   
    13     6     7 1   
    14     7     8 1   
    15     7     9 2   
    16     8    17 1   
    17     8    18 1   
    18     9    10 1   
    19    10    11 2   
    20    11    19 1   
@<TRIPOS>SUBSTRUCTURE
     1 3MA         1 TEMP              0 ****  ****    0 ROOT
