@<TRIPOS>MOLECULE
3MB
   20    20     1     0     0
SMALL
bcc


@<TRIPOS>ATOM
      1 C3           0.1420     0.0060     1.4240 ca         1 3MB       0.133100
      2 O3           1.0480    -0.0760     2.4150 os         1 3MB      -0.313900
      3 C7           0.5860    -0.1420     3.7490 c3         1 3MB       0.125700
      4 C2           0.6540     0.0600     0.1280 ca         1 3MB      -0.111000
      5 C1          -0.1960     0.1240    -0.9650 ca         1 3MB      -0.117600
      6 C            0.4260     0.1870    -2.3270 c          1 3MB       0.681700
      7 O            1.5670     0.6000    -2.4820 o          1 3MB      -0.600100
      8 N           -0.3410    -0.2310    -3.3450 nt         1 3MB      -0.670000
      9 C6          -1.5780     0.1600    -0.7690 ca         1 3MB      -0.146000
     10 C5          -2.0810     0.1230     0.5190 ca         1 3MB      -0.100000
     11 C4          -1.2370     0.0420     1.6210 ca         1 3MB      -0.199000
     12 H71          1.4680    -0.2290     4.3780 h1         1 3MB       0.041700
     13 H72          0.0350     0.7580     4.0360 h1         1 3MB       0.041700
     14 H73         -0.0530    -1.0130     3.9170 h1         1 3MB       0.041700
     15 H2           1.7270     0.0430    -0.0150 ha         1 3MB       0.168000
     16 HN1          0.0340    -0.2340    -4.2800 hn         1 3MB       0.313500
     17 HN2         -1.2140    -0.7080    -3.2040 hn         1 3MB       0.313500
     18 H6          -2.2640     0.2430    -1.6020 ha         1 3MB       0.131000
     19 H5          -3.1500     0.1630     0.6790 ha         1 3MB       0.131000
     20 H4          -1.6680     0.0120     2.6120 ha         1 3MB       0.137000
@<TRIPOS>BOND
     1     1     2 1   
     2     1     4 ar  
     3     1    11 ar  
     4     2     3 1   
     5     3    12 1   
     6     3    13 1   
     7     3    14 1   
     8     4     5 ar  
     9     4    15 1   
    10     5     6 1   
    11     5     9 ar  
    12     6     7 2   
    13     6     8 1   
    14     8    16 1   
    15     8    17 1   
    16     9    10 ar  
    17     9    18 1   
    18    10    11 ar  
    19    10    19 1   
    20    11    20 1   
@<TRIPOS>SUBSTRUCTURE
     1 3MB         1 TEMP              0 ****  ****    0 ROOT
