@<TRIPOS>MOLECULE
3MB
   20    20     1     0     0
SMALL
No Charge or Current Charge


@<TRIPOS>ATOM
      1 C3           0.1550    -0.0110     1.4360 ca         1 3MB       0.133100
      2 O3           1.0450    -0.0120     2.4920 os         1 3MB      -0.337100
      3 C7           0.6090    -0.0280     3.8640 c3         1 3MB       0.148900
      4 C2           0.6820     0.0050     0.1340 ca         1 3MB      -0.093000
      5 C1          -0.1640     0.0070    -1.0000 ca         1 3MB      -0.117600
      6 C            0.4470     0.0240    -2.3870 c          1 3MB       0.614700
      7 O            1.6520     0.0370    -2.5790 o          1 3MB      -0.600100
      8 N           -0.3840     0.0260    -3.4530 nt         1 3MB      -0.603000
      9 C6          -1.5650    -0.0080    -0.7930 ca         1 3MB      -0.128000
     10 C5          -2.0960    -0.0240     0.5070 ca         1 3MB      -0.082000
     11 C4          -1.2430    -0.0250     1.6220 ca         1 3MB      -0.181000
     12 H71          1.4750    -0.0250     4.5370 h1         1 3MB       0.041700
     13 H72          0.0000     0.8570     4.0900 h1         1 3MB       0.041700
     14 H73          0.0170    -0.9270     4.0740 h1         1 3MB       0.041700
     15 H2           1.7620     0.0160     0.0090 ha         1 3MB       0.150000
     16 HN1          0.0080     0.0380    -4.3820 hn         1 3MB       0.313500
     17 HN2         -1.3830     0.0160    -3.3180 hn         1 3MB       0.313500
     18 H6          -2.2570    -0.0070    -1.6320 ha         1 3MB       0.113000
     19 H5          -3.1750    -0.0350     0.6510 ha         1 3MB       0.113000
     20 H4          -1.6820    -0.0380     2.6160 ha         1 3MB       0.119000
@<TRIPOS>BOND
     1     1     2 1   
     2     1     4 ar  
     3     1    11 ar  
     4     2     3 1   
     5     3    12 1   
     6     3    13 1   
     7     3    14 1   
     8     4     5 ar  
     9     4    15 1   
    10     5     6 1   
    11     5     9 ar  
    12     6     7 2   
    13     6     8 1   
    14     8    16 1   
    15     8    17 1   
    16     9    10 ar  
    17     9    18 1   
    18    10    11 ar  
    19    10    19 1   
    20    11    20 1   
@<TRIPOS>SUBSTRUCTURE
     1 3MB         1 TEMP              0 ****  ****    0 ROOT
