@<TRIPOS>MOLECULE
3MC
   17    17     1     0     0
SMALL
bcc


@<TRIPOS>ATOM
      1 N3           0.1460     0.6720     0.0380 n          1 3MC      -0.367400
      2 CN3          0.4780     2.0950     0.0360 c3         1 3MC       0.045300
      3 N1          -1.4360    -1.0350     0.0940 ns         1 3MC      -0.436100
      4 C2          -1.2030     0.3130     0.0930 c          1 3MC       0.818500
      5 O2          -2.0920     1.1270     0.1360 o          1 3MC      -0.520500
      6 C4           1.1470    -0.2400    -0.0140 cc         1 3MC       0.457400
      7 N4           2.3940     0.1620    -0.0670 nv         1 3MC      -0.442200
      8 C5           0.8320    -1.6220    -0.0100 cc         1 3MC      -0.421600
      9 C6          -0.4680    -1.9700     0.0440 cd         1 3MC       0.146600
     10 H31          1.0830     2.3400     0.9080 h1         1 3MC       0.088700
     11 H32          1.0120     2.3530    -0.8770 h1         1 3MC       0.088700
     12 H33         -0.4340     2.6750     0.0770 h1         1 3MC       0.088700
     13 HN1         -2.4050    -1.3220     0.1320 hn         1 3MC       0.389500
     14 HN41         2.6740     1.1290    -0.0780 hn         1 3MC       0.330200
     15 HN42         3.1360    -0.5200    -0.1100 hn         1 3MC       0.330200
     16 H5           1.6160    -2.3600    -0.0510 ha         1 3MC       0.201000
     17 H6          -0.7980    -2.9980     0.0510 h4         1 3MC       0.202000
@<TRIPOS>BOND
     1     1     2 1   
     2     1     4 1   
     3     1     6 2   
     4     2    10 1   
     5     2    11 1   
     6     2    12 1   
     7     3     4 1   
     8     3     9 1   
     9     3    13 1   
    10     4     5 2   
    11     6     7 1   
    12     6     8 1   
    13     7    14 1   
    14     7    15 1   
    15     8     9 2   
    16     8    16 1   
    17     9    17 1   
@<TRIPOS>SUBSTRUCTURE
     1 3MC         1 TEMP              0 ****  ****    0 ROOT
