@<TRIPOS>MOLECULE
3MC
   17    17     1     0     0
SMALL
No Charge or Current Charge


@<TRIPOS>ATOM
      1 N3           0.1440     0.7020     0.0450 n          1 3MC      -0.300400
      2 CN3          0.4480     2.1620     0.0550 c3         1 3MC       0.045300
      3 N1          -1.4380    -1.0490     0.0650 ns         1 3MC      -0.482600
      4 C2          -1.2070     0.2960     0.0610 c          1 3MC       0.609000
      5 O2          -2.1440     1.0770     0.0710 o          1 3MC      -0.445000
      6 C4           1.1690    -0.2430     0.0170 cc         1 3MC       0.457400
      7 N4           2.4750     0.1210    -0.0200 nv         1 3MC      -0.542800
      8 C5           0.8310    -1.6260     0.0250 cc         1 3MC      -0.471600
      9 C6          -0.4790    -2.0360     0.0520 cd         1 3MC       0.096600
     10 H31          1.1620     2.3920     0.8570 h1         1 3MC       0.088700
     11 H32          0.8800     2.4590    -0.9090 h1         1 3MC       0.088700
     12 H33         -0.4500     2.7680     0.2300 h1         1 3MC       0.088700
     13 HN1         -2.4260    -1.2910     0.0800 hn         1 3MC       0.503000
     14 HN41         2.7320     1.0870    -0.1630 hn         1 3MC       0.380500
     15 HN42         3.1870    -0.5880    -0.1340 hn         1 3MC       0.380500
     16 H5           1.6310    -2.3610     0.0090 ha         1 3MC       0.251000
     17 H6          -0.8340    -3.0700     0.0600 h4         1 3MC       0.252000
@<TRIPOS>BOND
     1     1     2 1   
     2     1     4 1   
     3     1     6 2   
     4     2    10 1   
     5     2    11 1   
     6     2    12 1   
     7     3     4 1   
     8     3     9 1   
     9     3    13 1   
    10     4     5 2   
    11     6     7 1   
    12     6     8 1   
    13     7    14 1   
    14     7    15 1   
    15     8     9 2   
    16     8    16 1   
    17     9    17 1   
@<TRIPOS>SUBSTRUCTURE
     1 3MC         1 TEMP              0 ****  ****    0 ROOT
