@<TRIPOS>MOLECULE
3MD
   17    16     1     0     0
SMALL
bcc


@<TRIPOS>ATOM
      1 N            1.5670     0.9850    -0.3810 n8         1 3MD      -0.896800
      2 CB          -0.4830    -0.1750     0.5290 c3         1 3MD      -0.205700
      3 CG           0.0030    -0.3640     1.9860 c          1 3MD       0.918600
      4 OD1          1.2170    -0.5820     2.1850 o          1 3MD      -0.875800
      5 OD2         -0.8750    -0.3080     2.8730 o          1 3MD      -0.875800
      6 CA           0.6550    -0.1410    -0.5080 c3         1 3MD       0.055500
      7 CB1         -1.4030     1.0400     0.4180 c3         1 3MD      -0.052100
      8 C            0.0580    -0.2120    -1.9280 c          1 3MD       0.924600
      9 O            0.1430     0.8010    -2.6520 o          1 3MD      -0.876800
     10 OXT         -0.4950    -1.2900    -2.2370 o          1 3MD      -0.876800
     11 H            1.1100     1.8230    -0.7140 hn         1 3MD       0.323300
     12 H2           1.7810     1.1190     0.5990 hn         1 3MD       0.323300
     13 HB          -1.0890    -1.0610     0.3010 hc         1 3MD       0.048700
     14 HA           1.2410    -1.0560    -0.3640 h1         1 3MD       0.051700
     15 HB11        -0.8630     1.9710     0.6100 hc         1 3MD       0.003700
     16 HB12        -1.8530     1.1230    -0.5730 hc         1 3MD       0.003700
     17 HB13        -2.2130     0.9790     1.1430 hc         1 3MD       0.003700
@<TRIPOS>BOND
     1     1     6 1   
     2     1    11 1   
     3     1    12 1   
     4     2     3 1   
     5     2     6 1   
     6     2     7 1   
     7     2    13 1   
     8     3     4 1   
     9     3     5 1   
    10     6     8 1   
    11     6    14 1   
    12     7    15 1   
    13     7    16 1   
    14     7    17 1   
    15     8     9 1   
    16     8    10 1   
@<TRIPOS>SUBSTRUCTURE
     1 3MD         1 TEMP              0 ****  ****    0 ROOT
