@<TRIPOS>MOLECULE
3MF
   27    26     1     0     0
SMALL
No Charge or Current Charge


@<TRIPOS>ATOM
      1 C1          -1.0700     1.0200     2.3500 c3         1 3MF       0.060600
      2 C2           0.0000    -0.0660     2.0280 c          1 3MF       0.537100
      3 C3           0.6470     0.0310     0.6150 c3         1 3MF       0.041300
      4 C4          -0.3770    -0.3680    -0.4900 c3         1 3MF       0.149300
      5 C5          -0.1410     0.3870    -1.8360 c3         1 3MF       0.137300
      6 C6          -1.1180    -0.0480    -2.9610 c3         1 3MF       0.128600
      7 O1          -1.0470     1.4650     3.7270 oh         1 3MF      -0.623000
      8 O2           0.3570    -0.8950     2.8630 o          1 3MF      -0.456100
      9 O3           1.8180    -0.8280     0.4500 os         1 3MF      -0.437000
     10 O4          -0.2650    -1.7860    -0.6870 oh         1 3MF      -0.708000
     11 O5          -0.3020     1.8040    -1.6480 oh         1 3MF      -0.636000
     12 O6          -0.9450     0.7960    -4.1160 oh         1 3MF      -0.708000
     13 H11         -0.8990     1.8720     1.6790 h1         1 3MF       0.031700
     14 H12         -2.0520     0.5990     2.0970 h1         1 3MF       0.031700
     15 H3           0.9270     1.0840     0.4770 h1         1 3MF       0.061700
     16 H4          -1.3930    -0.1170    -0.1540 h1         1 3MF       0.065700
     17 H5           0.8820     0.1660    -2.1760 h1         1 3MF       0.101700
     18 H61         -0.9230    -1.0970    -3.2250 h1         1 3MF       0.027700
     19 H62         -2.1510     0.0160    -2.5920 h1         1 3MF       0.027700
     20 H71          3.8370    -1.0840     0.9330 h1         1 3MF       0.037700
     21 H72          3.3150     0.6060     0.7770 h1         1 3MF       0.037700
     22 H73          2.8590    -0.3410     2.2140 h1         1 3MF       0.037700
     23 HO1         -1.7650     2.1290     3.8370 ho         1 3MF       0.445000
     24 HO4          0.6540    -1.9900    -0.3770 ho         1 3MF       0.526000
     25 HO5         -0.5240     2.1380    -2.5480 ho         1 3MF       0.434000
     26 HO6         -1.5290     0.4390    -4.8280 ho         1 3MF       0.504000
     27 C7           3.0110    -0.3890     1.1290 c3         1 3MF       0.145900
@<TRIPOS>BOND
     1     1     2 1   
     2     1     7 1   
     3     1    13 1   
     4     1    14 1   
     5     2     3 1   
     6     2     8 2   
     7     3     4 1   
     8     3     9 1   
     9     3    15 1   
    10     4     5 1   
    11     4    10 1   
    12     4    16 1   
    13     5     6 1   
    14     5    11 1   
    15     5    17 1   
    16     6    12 1   
    17     6    18 1   
    18     6    19 1   
    19     7    23 1   
    20     9    27 1   
    21    10    24 1   
    22    11    25 1   
    23    12    26 1   
    24    20    27 1   
    25    21    27 1   
    26    22    27 1   
@<TRIPOS>SUBSTRUCTURE
     1 3MF         1 TEMP              0 ****  ****    0 ROOT
