@<TRIPOS>MOLECULE
3MF
   27    26     1     0     0
SMALL
bcc


@<TRIPOS>ATOM
      1 C1          -0.9470     0.9950     2.4840 c3         1 3MF       0.037400
      2 C2           0.0160    -0.0430     1.9660 c          1 3MF       0.537100
      3 C3           0.5870     0.2310     0.5780 c3         1 3MF       0.018100
      4 C4          -0.4570    -0.1540    -0.4820 c3         1 3MF       0.126100
      5 C5           0.0490     0.1300    -1.9090 c3         1 3MF       0.114100
      6 C6          -1.0680    -0.0950    -2.9160 c3         1 3MF       0.105400
      7 O1          -1.4910     0.5710     3.6960 oh         1 3MF      -0.560800
      8 O2           0.3300    -1.0120     2.6090 o          1 3MF      -0.456100
      9 O3           1.7380    -0.5190     0.3410 os         1 3MF      -0.390600
     10 O4          -0.8710    -1.4890    -0.3290 oh         1 3MF      -0.585800
     11 O5           0.5960     1.4220    -2.0120 oh         1 3MF      -0.573800
     12 O6          -0.5440     0.0560    -4.2140 oh         1 3MF      -0.585800
     13 H11         -0.3800     1.9340     2.5710 h1         1 3MF       0.031700
     14 H12         -1.7110     1.1850     1.7170 h1         1 3MF       0.031700
     15 H3           0.7810     1.3100     0.4900 h1         1 3MF       0.061700
     16 H4          -1.3500     0.4570    -0.3100 h1         1 3MF       0.065700
     17 H5           0.8680    -0.5610    -2.1360 h1         1 3MF       0.101700
     18 H61         -1.4920    -1.0940    -2.7640 h1         1 3MF       0.027700
     19 H62         -1.8750     0.6270    -2.7170 h1         1 3MF       0.027700
     20 H71          3.7440    -0.6000     0.5980 h1         1 3MF       0.037700
     21 H72          3.0830     1.0450     0.5800 h1         1 3MF       0.037700
     22 H73          2.8770     0.0160     2.0110 h1         1 3MF       0.037700
     23 HO1         -2.1150     1.2410     3.9880 ho         1 3MF       0.406000
     24 HO4         -0.1030    -2.0640    -0.4240 ho         1 3MF       0.427000
     25 HO5         -0.1160     2.0680    -1.9520 ho         1 3MF       0.395000
     26 HO6         -1.2480    -0.1310    -4.8420 ho         1 3MF       0.405000
     27 C7           2.9060     0.0180     0.9170 c3         1 3MF       0.122700
@<TRIPOS>BOND
     1     1     2 1   
     2     1     7 1   
     3     1    13 1   
     4     1    14 1   
     5     2     3 1   
     6     2     8 2   
     7     3     4 1   
     8     3     9 1   
     9     3    15 1   
    10     4     5 1   
    11     4    10 1   
    12     4    16 1   
    13     5     6 1   
    14     5    11 1   
    15     5    17 1   
    16     6    12 1   
    17     6    18 1   
    18     6    19 1   
    19     7    23 1   
    20     9    27 1   
    21    10    24 1   
    22    11    25 1   
    23    12    26 1   
    24    20    27 1   
    25    21    27 1   
    26    22    27 1   
@<TRIPOS>SUBSTRUCTURE
     1 3MF         1 TEMP              0 ****  ****    0 ROOT
