@<TRIPOS>MOLECULE
3MG
   27    27     1     0     0
SMALL
No Charge or Current Charge


@<TRIPOS>ATOM
      1 O6          -4.7470    21.6630   -14.1180 oh         1 3MG      -0.691000
      2 C6          -5.8860    21.9860   -14.9330 c3         1 3MG       0.167600
      3 C5          -6.1660    20.8670   -15.9800 c6         1 3MG       0.107300
      4 O5          -6.0570    19.5970   -15.2880 os         1 3MG      -0.421000
      5 C4          -7.5690    21.0060   -16.6550 c6         1 3MG       0.128300
      6 O4          -7.6780    22.2630   -17.3510 oh         1 3MG      -0.715000
      7 C3          -7.8070    19.7710   -17.5960 c6         1 3MG       0.143300
      8 O3          -9.1090    19.7620   -18.2410 os         1 3MG      -0.441000
      9 C7          -9.2610    20.5020   -19.4690 c3         1 3MG       0.150900
     10 C2          -7.6270    18.4590   -16.7820 c6         1 3MG       0.073300
     11 O2          -7.8530    17.2980   -17.6190 oh         1 3MG      -0.701000
     12 C1          -6.2060    18.4550   -16.1440 c6         1 3MG       0.377300
     13 O1          -6.0380    17.2980   -15.3390 oh         1 3MG      -0.634000
     14 HO6         -4.7840    20.6810   -14.0210 ho         1 3MG       0.498000
     15 H61         -5.7290    22.9370   -15.4590 h1         1 3MG       0.051200
     16 H62         -6.7790    22.1010   -14.3020 h1         1 3MG       0.051200
     17 H5          -5.3830    20.9130   -16.7520 h1         1 3MG       0.044700
     18 H4          -8.3250    20.9660   -15.8550 h1         1 3MG       0.061700
     19 HO4         -8.6350    22.4000   -17.5400 ho         1 3MG       0.511000
     20 H3          -7.0370    19.7810   -18.3810 h1         1 3MG       0.046700
     21 H71         -9.1460    21.5800   -19.3130 h1         1 3MG       0.032367
     22 H72         -8.5230    20.1780   -20.2130 h1         1 3MG       0.032367
     23 H73        -10.2600    20.3320   -19.8900 h1         1 3MG       0.032367
     24 H2          -8.3580    18.4760   -15.9580 h1         1 3MG       0.111700
     25 HO2         -8.6240    17.5270   -18.1910 ho         1 3MG       0.498000
     26 H1          -5.4370    18.4760   -16.9300 h2         1 3MG       0.012700
     27 HO1         -6.4170    16.5780   -15.8890 ho         1 3MG       0.472000
@<TRIPOS>BOND
     1     1     2 1   
     2     1    14 1   
     3     2     3 1   
     4     2    15 1   
     5     2    16 1   
     6     3     4 1   
     7     3     5 1   
     8     3    17 1   
     9     4    12 1   
    10     5     6 1   
    11     5     7 1   
    12     5    18 1   
    13     6    19 1   
    14     7     8 1   
    15     7    10 1   
    16     7    20 1   
    17     8     9 1   
    18     9    21 1   
    19     9    22 1   
    20     9    23 1   
    21    10    11 1   
    22    10    12 1   
    23    10    24 1   
    24    11    25 1   
    25    12    13 1   
    26    12    26 1   
    27    13    27 1   
@<TRIPOS>SUBSTRUCTURE
     1 3MG         1 TEMP              0 ****  ****    0 ROOT
