@<TRIPOS>MOLECULE
3MG
   27    27     1     0     0
SMALL
abcg2


@<TRIPOS>ATOM
      1 O6          -4.7640    21.6070   -14.1410 oh         1 3MG      -0.691000
      2 C6          -5.9930    21.7920   -14.7960 c3         1 3MG       0.167600
      3 C5          -6.2530    20.7710   -15.8930 c6         1 3MG       0.107300
      4 O5          -6.2670    19.4960   -15.2870 os         1 3MG      -0.421000
      5 C4          -7.5820    21.0430   -16.6160 c6         1 3MG       0.128300
      6 O4          -7.5100    22.2270   -17.3760 oh         1 3MG      -0.715000
      7 C3          -7.9180    19.8990   -17.5700 c6         1 3MG       0.143300
      8 O3          -9.2210    20.0650   -18.0730 os         1 3MG      -0.441000
      9 C7          -9.3050    20.2110   -19.4690 c3         1 3MG       0.150900
     10 C2          -7.8030    18.5560   -16.8570 c6         1 3MG       0.073300
     11 O2          -8.0520    17.4580   -17.7000 oh         1 3MG      -0.701000
     12 C1          -6.4250    18.4550   -16.2000 c6         1 3MG       0.377300
     13 O1          -6.2710    17.2930   -15.4610 oh         1 3MG      -0.634000
     14 HO6         -4.0560    21.8090   -14.7610 ho         1 3MG       0.498000
     15 H61         -6.0760    22.7980   -15.2230 h1         1 3MG       0.051200
     16 H62         -6.7740    21.6990   -14.0360 h1         1 3MG       0.051200
     17 H5          -5.4410    20.8280   -16.6390 h1         1 3MG       0.044700
     18 H4          -8.3800    21.1030   -15.8610 h1         1 3MG       0.061700
     19 HO4         -7.7960    22.9680   -16.8350 ho         1 3MG       0.511000
     20 H3          -7.1800    19.9180   -18.3890 h1         1 3MG       0.046700
     21 H71         -8.7630    21.0920   -19.8290 h1         1 3MG       0.032367
     22 H72         -8.9230    19.3350   -20.0040 h1         1 3MG       0.032367
     23 H73        -10.3580    20.3310   -19.7240 h1         1 3MG       0.032367
     24 H2          -8.5580    18.5030   -16.0640 h1         1 3MG       0.111700
     25 HO2         -7.4630    17.5000   -18.4630 ho         1 3MG       0.498000
     26 H1          -5.6480    18.5300   -16.9880 h2         1 3MG       0.012700
     27 HO1         -6.6630    16.5640   -15.9570 ho         1 3MG       0.472000
@<TRIPOS>BOND
     1     1     2 1   
     2     1    14 1   
     3     2     3 1   
     4     2    15 1   
     5     2    16 1   
     6     3     4 1   
     7     3     5 1   
     8     3    17 1   
     9     4    12 1   
    10     5     6 1   
    11     5     7 1   
    12     5    18 1   
    13     6    19 1   
    14     7     8 1   
    15     7    10 1   
    16     7    20 1   
    17     8     9 1   
    18     9    21 1   
    19     9    22 1   
    20     9    23 1   
    21    10    11 1   
    22    10    12 1   
    23    10    24 1   
    24    11    25 1   
    25    12    13 1   
    26    12    26 1   
    27    13    27 1   
@<TRIPOS>SUBSTRUCTURE
     1 3MG         1 TEMP              0 ****  ****    0 ROOT
