@<TRIPOS>MOLECULE
3MH
   16    16     1     0     0
SMALL
abcg2


@<TRIPOS>ATOM
      1 S1           1.9800     0.3510     0.1000 s          1 3MH      -0.614400
      2 C1           0.3270     0.0570    -0.0370 cs         1 3MH       0.323600
      3 C2          -0.2790    -1.2320    -0.0420 cc         1 3MH      -0.127400
      4 C6           0.6010    -2.4380     0.0240 c3         1 3MH      -0.042900
      5 C3          -1.6460    -1.3420    -0.1030 cd         1 3MH      -0.113000
      6 C4          -2.4700    -0.2080    -0.1430 cd         1 3MH      -0.251000
      7 C5          -1.8830     1.0200    -0.1350 cc         1 3MH      -0.049400
      8 N1          -0.5400     1.1090    -0.1070 n          1 3MH      -0.013500
      9 O1          -0.0420     2.3620    -0.1880 oh         1 3MH      -0.429100
     10 H1           1.1900    -2.4410     0.9420 hc         1 3MH       0.058367
     11 H2           0.0090    -3.3510    -0.0110 hc         1 3MH       0.058367
     12 H3           1.3110    -2.4520    -0.8040 hc         1 3MH       0.058367
     13 H4          -2.0990    -2.3250    -0.1100 ha         1 3MH       0.197000
     14 H5          -3.5450    -0.2870    -0.1730 ha         1 3MH       0.211000
     15 H6          -2.4260     1.9520    -0.1630 h4         1 3MH       0.230000
     16 H7           0.7580     2.3610     0.3720 ho         1 3MH       0.504000
@<TRIPOS>BOND
     1     1     2 2   
     2     2     3 1   
     3     2     8 1   
     4     3     4 1   
     5     3     5 2   
     6     4    10 1   
     7     4    11 1   
     8     4    12 1   
     9     5     6 1   
    10     5    13 1   
    11     6     7 2   
    12     6    14 1   
    13     7     8 1   
    14     7    15 1   
    15     8     9 1   
    16     9    16 1   
@<TRIPOS>SUBSTRUCTURE
     1 3MH         1 TEMP              0 ****  ****    0 ROOT
