@<TRIPOS>MOLECULE
3MH
   16    16     1     0     0
SMALL
No Charge or Current Charge


@<TRIPOS>ATOM
      1 S1           2.0650     0.1910    -0.0820 s          1 3MH      -0.614400
      2 C1           0.3830     0.0230    -0.1070 cs         1 3MH       0.323600
      3 C2          -0.2890    -1.2720    -0.0550 cc         1 3MH      -0.127400
      4 C6           0.6100    -2.4890     0.0090 c3         1 3MH      -0.042900
      5 C3          -1.6690    -1.3810    -0.0620 cd         1 3MH      -0.113000
      6 C4          -2.4700    -0.1940    -0.1230 cd         1 3MH      -0.251000
      7 C5          -1.8360     1.0260    -0.1730 cc         1 3MH      -0.049400
      8 N1          -0.4500     1.1420    -0.1650 n          1 3MH      -0.013500
      9 O1           0.1070     2.4600    -0.2260 oh         1 3MH      -0.429100
     10 H1           1.2390    -2.4710     0.9080 hc         1 3MH       0.058367
     11 H2           0.0270    -3.4170     0.0390 hc         1 3MH       0.058367
     12 H3           1.2660    -2.5450    -0.8680 hc         1 3MH       0.058367
     13 H4          -2.1460    -2.3590    -0.0230 ha         1 3MH       0.197000
     14 H5          -3.5570    -0.2530    -0.1320 ha         1 3MH       0.211000
     15 H6          -2.3300     1.9920    -0.2290 h4         1 3MH       0.230000
     16 H7           0.2980     2.6820     0.7130 ho         1 3MH       0.504000
@<TRIPOS>BOND
     1     1     2 2   
     2     2     3 1   
     3     2     8 1   
     4     3     4 1   
     5     3     5 2   
     6     4    10 1   
     7     4    11 1   
     8     4    12 1   
     9     5     6 1   
    10     5    13 1   
    11     6     7 2   
    12     6    14 1   
    13     7     8 1   
    14     7    15 1   
    15     8     9 1   
    16     9    16 1   
@<TRIPOS>SUBSTRUCTURE
     1 3MH         1 TEMP              0 ****  ****    0 ROOT
