@<TRIPOS>MOLECULE
3MI
   26    28     1     0     0
SMALL
abcg2


@<TRIPOS>ATOM
      1 OAA         -6.7210    -0.1270     0.0030 o          1 3MI      -0.710000
      2 OAB         -5.7790     1.8930     0.0150 o          1 3MI      -0.710000
      3 CAE         -4.2370    -1.3960     0.0170 ca         1 3MI      -0.094000
      4 CAF         -3.0090    -2.0340     0.0210 ca         1 3MI      -0.087000
      5 CAG          4.2530     0.2670     0.0170 ca         1 3MI      -0.103000
      6 CAH          2.3570    -1.2350     0.0250 ca         1 3MI      -0.074000
      7 CAI          2.0020     1.1580     0.0130 ca         1 3MI      -0.074000
      8 CAJ         -3.2290     0.8110     0.0130 ca         1 3MI      -0.082000
      9 NAK         -0.5290    -1.5300     0.0230 nc         1 3MI      -0.563100
     10 OAL         -0.7650     0.6830     0.0160 os         1 3MI      -0.286700
     11 CAM         -5.7470     0.6480     0.0100 c          1 3MI       0.712600
     12 CAN          3.7200    -1.0140     0.0240 ca         1 3MI       0.115500
     13 CAO          3.3750     1.3380     0.0120 ca         1 3MI       0.115500
     14 CAP         -4.3630     0.0040     0.0130 ca         1 3MI      -0.106600
     15 CAQ          1.4950    -0.1390     0.0190 ca         1 3MI      -0.063900
     16 CAR          0.0600    -0.3840     0.0200 cd         1 3MI       0.528200
     17 CAS         -1.8750    -1.2280     0.0210 ca         1 3MI       0.021400
     18 CAT         -2.0170     0.1550     0.0160 ca         1 3MI       0.022100
     19 HAE         -5.1400    -1.9900     0.0170 ha         1 3MI       0.138000
     20 HAF         -2.9310    -3.1140     0.0250 ha         1 3MI       0.111000
     21 HAG          5.3230     0.4240     0.0160 ha         1 3MI       0.136000
     22 HAH          1.9610    -2.2410     0.0310 ha         1 3MI       0.155500
     23 HAI          1.3460     2.0170     0.0090 ha         1 3MI       0.155500
     24 HAJ         -3.3060     1.8890     0.0090 ha         1 3MI       0.151000
     25 CLC          4.7960    -2.3650     0.0310 cl         1 3MI      -0.203500
     26 CLD          4.0130     2.9430     0.0040 cl         1 3MI      -0.203500
@<TRIPOS>BOND
     1     1    11 1   
     2     2    11 1   
     3     3     4 ar  
     4     3    14 ar  
     5     3    19 1   
     6     4    17 ar  
     7     4    20 1   
     8     5    12 ar  
     9     5    13 ar  
    10     5    21 1   
    11     6    12 ar  
    12     6    15 ar  
    13     6    22 1   
    14     7    13 ar  
    15     7    15 ar  
    16     7    23 1   
    17     8    14 ar  
    18     8    18 ar  
    19     8    24 1   
    20     9    16 2   
    21     9    17 1   
    22    10    16 1   
    23    10    18 1   
    24    11    14 1   
    25    12    25 1   
    26    13    26 1   
    27    15    16 1   
    28    17    18 ar  
@<TRIPOS>SUBSTRUCTURE
     1 3MI         1 TEMP              0 ****  ****    0 ROOT
