@<TRIPOS>MOLECULE
3MI
   26    28     1     0     0
SMALL
No Charge or Current Charge


@<TRIPOS>ATOM
      1 OAA         -6.8020    -0.0390     0.0120 o          1 3MI      -0.710000
      2 OAB         -5.8710     1.8970     0.0060 o          1 3MI      -0.710000
      3 CAE         -4.3100    -1.4040     0.0190 ca         1 3MI      -0.094000
      4 CAF         -3.0410    -2.0270     0.0220 ca         1 3MI      -0.087000
      5 CAG          4.3090     0.2860     0.0190 ca         1 3MI      -0.103000
      6 CAH          2.4200    -1.2520     0.0230 ca         1 3MI      -0.074000
      7 CAI          2.0310     1.1490     0.0140 ca         1 3MI      -0.074000
      8 CAJ         -3.2600     0.8090     0.0110 ca         1 3MI      -0.082000
      9 NAK         -0.5560    -1.6130     0.0220 nc         1 3MI      -0.563100
     10 OAL         -0.7950     0.6650     0.0130 os         1 3MI      -0.286700
     11 CAM         -5.8090     0.6750     0.0100 c          1 3MI       0.712600
     12 CAN          3.8070    -1.0240     0.0240 ca         1 3MI       0.115500
     13 CAO          3.4190     1.3700     0.0140 ca         1 3MI       0.115500
     14 CAP         -4.4390     0.0170     0.0130 ca         1 3MI      -0.106600
     15 CAQ          1.5140    -0.1670     0.0180 ca         1 3MI      -0.063900
     16 CAR          0.0550    -0.4100     0.0180 cd         1 3MI       0.528200
     17 CAS         -1.8970    -1.2190     0.0200 ca         1 3MI       0.021400
     18 CAT         -2.0310     0.1450     0.0150 ca         1 3MI       0.022100
     19 HAE         -5.1990    -2.0310     0.0210 ha         1 3MI       0.138000
     20 HAF         -2.9530    -3.1110     0.0260 ha         1 3MI       0.111000
     21 HAG          5.3810     0.4600     0.0190 ha         1 3MI       0.136000
     22 HAH          2.0530    -2.2750     0.0270 ha         1 3MI       0.155500
     23 HAI          1.3630     2.0070     0.0100 ha         1 3MI       0.155500
     24 HAJ         -3.2990     1.8960     0.0070 ha         1 3MI       0.151000
     25 ClC          4.9190    -2.3860     0.0300 cl         1 3MI      -0.203500
     26 ClD          4.0440     3.0140     0.0080 cl         1 3MI      -0.203500
@<TRIPOS>BOND
     1     1    11 1   
     2     2    11 1   
     3     3     4 ar  
     4     3    14 ar  
     5     3    19 1   
     6     4    17 ar  
     7     4    20 1   
     8     5    12 ar  
     9     5    13 ar  
    10     5    21 1   
    11     6    12 ar  
    12     6    15 ar  
    13     6    22 1   
    14     7    13 ar  
    15     7    15 ar  
    16     7    23 1   
    17     8    14 ar  
    18     8    18 ar  
    19     8    24 1   
    20     9    16 2   
    21     9    17 1   
    22    10    16 1   
    23    10    18 1   
    24    11    14 1   
    25    12    25 1   
    26    13    26 1   
    27    15    16 1   
    28    17    18 ar  
@<TRIPOS>SUBSTRUCTURE
     1 3MI         1 TEMP              0 ****  ****    0 ROOT
