@<TRIPOS>MOLECULE
3MJ
   50    50     1     0     0
SMALL
No Charge or Current Charge


@<TRIPOS>ATOM
      1 C7          -5.1530    -1.1250     0.0850 ca         1 3MJ      -0.130500
      2 C5          -6.5490     0.8700    -0.0010 ca         1 3MJ       0.043100
      3 C6          -6.4270    -0.5310     0.0600 ca         1 3MJ       0.104600
      4 C4          -5.3920     1.6690    -0.0370 ca         1 3MJ       0.104600
      5 C3          -4.1190     1.0780    -0.0120 ca         1 3MJ      -0.130500
      6 C2          -3.9780    -0.3320     0.0490 ca         1 3MJ      -0.137600
      7 C1          -2.6120    -1.0050     0.0770 c          1 3MJ       0.586700
      8 C11         -1.3400    -0.1330     0.0380 c3         1 3MJ      -0.175400
      9 C12          0.0090    -0.8950     0.0690 c3         1 3MJ      -0.066400
     10 C13          1.2300     0.0480     0.0260 c3         1 3MJ      -0.077400
     11 C14          2.5780    -0.7060     0.0570 c3         1 3MJ      -0.074400
     12 C15          3.7990     0.2380     0.0130 c3         1 3MJ      -0.074400
     13 C16          5.1470    -0.5160     0.0440 c3         1 3MJ      -0.074400
     14 C17          6.3690     0.4280     0.0010 c3         1 3MJ      -0.074400
     15 O8          -5.5150     3.0260    -0.0960 oh         1 3MJ      -0.545100
     16 O9          -7.7940     1.4480    -0.0250 oh         1 3MJ      -0.554100
     17 O10         -7.5550    -1.3070     0.0950 oh         1 3MJ      -0.545100
     18 C18          7.7160    -0.3260     0.0320 c3         1 3MJ      -0.074400
     19 C19          8.9380     0.6180    -0.0110 c3         1 3MJ      -0.075400
     20 C20         10.2860    -0.1360     0.0190 c3         1 3MJ      -0.075400
     21 C21         11.5050     0.8060    -0.0240 c3         1 3MJ      -0.088100
     22 O22         -2.5240    -2.2270     0.1310 o          1 3MJ      -0.526100
     23 H1          -5.0720    -2.2090     0.1320 ha         1 3MJ       0.136500
     24 H2          -3.2510     1.7310    -0.0410 ha         1 3MJ       0.136500
     25 H3          -1.4120     0.5200    -0.8400 hc         1 3MJ       0.064200
     26 H4          -1.4090     0.5940     0.8550 hc         1 3MJ       0.064200
     27 H5           0.0580    -1.5070     0.9790 hc         1 3MJ       0.052200
     28 H6           0.0550    -1.5840    -0.7840 hc         1 3MJ       0.052200
     29 H7           1.1810     0.6600    -0.8840 hc         1 3MJ       0.036200
     30 H8           1.1840     0.7370     0.8790 hc         1 3MJ       0.036200
     31 H9           2.6280    -1.3180     0.9660 hc         1 3MJ       0.039700
     32 H10          2.6250    -1.3950    -0.7960 hc         1 3MJ       0.039700
     33 H11          3.7500     0.8500    -0.8960 hc         1 3MJ       0.036700
     34 H12          3.7530     0.9270     0.8660 hc         1 3MJ       0.036700
     35 H13          5.1970    -1.1280     0.9540 hc         1 3MJ       0.037700
     36 H14          5.1940    -1.2050    -0.8080 hc         1 3MJ       0.037700
     37 H15          6.3190     1.0400    -0.9090 hc         1 3MJ       0.036700
     38 H16          6.3220     1.1170     0.8540 hc         1 3MJ       0.036700
     39 H17         -6.4820     3.2120    -0.1030 ho         1 3MJ       0.483500
     40 H18         -8.4460     0.7090     0.0080 ho         1 3MJ       0.495000
     41 H19         -7.2910    -2.2530     0.1360 ho         1 3MJ       0.483500
     42 H20          7.7660    -0.9380     0.9410 hc         1 3MJ       0.036700
     43 H21          7.7630    -1.0150    -0.8210 hc         1 3MJ       0.036700
     44 H22          8.8880     1.2300    -0.9210 hc         1 3MJ       0.036700
     45 H23          8.8910     1.3070     0.8410 hc         1 3MJ       0.036700
     46 H24         10.3400    -0.7470     0.9290 hc         1 3MJ       0.036700
     47 H25         10.3370    -0.8240    -0.8330 hc         1 3MJ       0.036700
     48 H26         11.4980     1.4070    -0.9410 hc         1 3MJ       0.031367
     49 H27         11.5010     1.4850     0.8370 hc         1 3MJ       0.031367
     50 H28         12.4360     0.2270     0.0000 hc         1 3MJ       0.031367
@<TRIPOS>BOND
     1     1     3 ar  
     2     1     6 ar  
     3     1    23 1   
     4     2     3 ar  
     5     2     4 ar  
     6     2    16 1   
     7     3    17 1   
     8     4     5 ar  
     9     4    15 1   
    10     5     6 ar  
    11     5    24 1   
    12     6     7 1   
    13     7     8 1   
    14     7    22 2   
    15     8     9 1   
    16     8    25 1   
    17     8    26 1   
    18     9    10 1   
    19     9    27 1   
    20     9    28 1   
    21    10    11 1   
    22    10    29 1   
    23    10    30 1   
    24    11    12 1   
    25    11    31 1   
    26    11    32 1   
    27    12    13 1   
    28    12    33 1   
    29    12    34 1   
    30    13    14 1   
    31    13    35 1   
    32    13    36 1   
    33    14    18 1   
    34    14    37 1   
    35    14    38 1   
    36    15    39 1   
    37    16    40 1   
    38    17    41 1   
    39    18    19 1   
    40    18    42 1   
    41    18    43 1   
    42    19    20 1   
    43    19    44 1   
    44    19    45 1   
    45    20    21 1   
    46    20    46 1   
    47    20    47 1   
    48    21    48 1   
    49    21    49 1   
    50    21    50 1   
@<TRIPOS>SUBSTRUCTURE
     1 3MJ         1 TEMP              0 ****  ****    0 ROOT
