@<TRIPOS>MOLECULE
3MJ
   50    50     1     0     0
SMALL
bcc


@<TRIPOS>ATOM
      1 C7          -5.0220    -1.1220     0.0940 ca         1 3MJ      -0.148500
      2 C5          -6.3680     0.8720    -0.0750 ca         1 3MJ       0.043100
      3 C6          -6.2640    -0.5180     0.0250 ca         1 3MJ       0.104600
      4 C4          -5.2110     1.6500    -0.1040 ca         1 3MJ       0.104600
      5 C3          -3.9660     1.0410    -0.0360 ca         1 3MJ      -0.148500
      6 C2          -3.8650    -0.3440     0.0630 ca         1 3MJ      -0.137600
      7 C1          -2.5440    -1.0270     0.1350 c          1 3MJ       0.586700
      8 C11         -1.2980    -0.1770     0.0920 c3         1 3MJ      -0.175400
      9 C12          0.0070    -0.9540     0.1400 c3         1 3MJ      -0.066400
     10 C13          1.2120    -0.0210     0.1110 c3         1 3MJ      -0.077400
     11 C14          2.5450    -0.7590     0.1120 c3         1 3MJ      -0.074400
     12 C15          3.7440     0.1810     0.0960 c3         1 3MJ      -0.074400
     13 C16          5.0830    -0.5450     0.0610 c3         1 3MJ      -0.074400
     14 C17          6.2760     0.4030     0.0480 c3         1 3MJ      -0.074400
     15 O8          -5.2710     2.9930    -0.2000 oh         1 3MJ      -0.506100
     16 O9          -7.5510     1.5140    -0.1500 oh         1 3MJ      -0.515100
     17 O10         -7.4360    -1.1870     0.0470 oh         1 3MJ      -0.506100
     18 C18          7.6190    -0.3150    -0.0050 c3         1 3MJ      -0.074400
     19 C19          8.8090     0.6370    -0.0180 c3         1 3MJ      -0.075400
     20 C20         10.1540    -0.0760    -0.0730 c3         1 3MJ      -0.075400
     21 C21         11.3320     0.8890    -0.0840 c3         1 3MJ      -0.088100
     22 O22         -2.4810    -2.2360     0.2250 o          1 3MJ      -0.526100
     23 H1          -4.9520    -2.2010     0.1690 ha         1 3MJ       0.154500
     24 H2          -3.0890     1.6740    -0.0620 ha         1 3MJ       0.154500
     25 H3          -1.3310     0.4390    -0.8140 hc         1 3MJ       0.064200
     26 H4          -1.3420     0.5360     0.9230 hc         1 3MJ       0.064200
     27 H5           0.0460    -1.5710     1.0420 hc         1 3MJ       0.052200
     28 H6           0.0620    -1.6430    -0.7080 hc         1 3MJ       0.052200
     29 H7           1.1560     0.6190    -0.7760 hc         1 3MJ       0.036200
     30 H8           1.1700     0.6540     0.9730 hc         1 3MJ       0.036200
     31 H9           2.6030    -1.4090     0.9930 hc         1 3MJ       0.039700
     32 H10          2.5920    -1.4240    -0.7580 hc         1 3MJ       0.039700
     33 H11          3.6700     0.8440    -0.7740 hc         1 3MJ       0.036700
     34 H12          3.7050     0.8320     0.9760 hc         1 3MJ       0.036700
     35 H13          5.1590    -1.2120     0.9270 hc         1 3MJ       0.037700
     36 H14          5.1230    -1.1920    -0.8230 hc         1 3MJ       0.037700
     37 H15          6.1920     1.0770    -0.8120 hc         1 3MJ       0.036700
     38 H16          6.2410     1.0420     0.9370 hc         1 3MJ       0.036700
     39 H17         -6.1860     3.2940    -0.2500 ho         1 3MJ       0.444500
     40 H18         -8.2880     0.8930    -0.1090 ho         1 3MJ       0.456000
     41 H19         -7.2890    -2.1370     0.1160 ho         1 3MJ       0.444500
     42 H20          7.7040    -0.9910     0.8530 hc         1 3MJ       0.036700
     43 H21          7.6550    -0.9530    -0.8960 hc         1 3MJ       0.036700
     44 H22          8.7220     1.3140    -0.8750 hc         1 3MJ       0.036700
     45 H23          8.7730     1.2740     0.8730 hc         1 3MJ       0.036700
     46 H24         10.2410    -0.7520     0.7840 hc         1 3MJ       0.036700
     47 H25         10.1910    -0.7120    -0.9640 hc         1 3MJ       0.036700
     48 H26         11.2890     1.5520    -0.9500 hc         1 3MJ       0.031367
     49 H27         11.3340     1.5150     0.8110 hc         1 3MJ       0.031367
     50 H28         12.2860     0.3610    -0.1190 hc         1 3MJ       0.031367
@<TRIPOS>BOND
     1     1     3 ar  
     2     1     6 ar  
     3     1    23 1   
     4     2     3 ar  
     5     2     4 ar  
     6     2    16 1   
     7     3    17 1   
     8     4     5 ar  
     9     4    15 1   
    10     5     6 ar  
    11     5    24 1   
    12     6     7 1   
    13     7     8 1   
    14     7    22 2   
    15     8     9 1   
    16     8    25 1   
    17     8    26 1   
    18     9    10 1   
    19     9    27 1   
    20     9    28 1   
    21    10    11 1   
    22    10    29 1   
    23    10    30 1   
    24    11    12 1   
    25    11    31 1   
    26    11    32 1   
    27    12    13 1   
    28    12    33 1   
    29    12    34 1   
    30    13    14 1   
    31    13    35 1   
    32    13    36 1   
    33    14    18 1   
    34    14    37 1   
    35    14    38 1   
    36    15    39 1   
    37    16    40 1   
    38    17    41 1   
    39    18    19 1   
    40    18    42 1   
    41    18    43 1   
    42    19    20 1   
    43    19    44 1   
    44    19    45 1   
    45    20    21 1   
    46    20    46 1   
    47    20    47 1   
    48    21    48 1   
    49    21    49 1   
    50    21    50 1   
@<TRIPOS>SUBSTRUCTURE
     1 3MJ         1 TEMP              0 ****  ****    0 ROOT
