@<TRIPOS>MOLECULE
3MK
   24    24     1     0     0
SMALL
abcg2


@<TRIPOS>ATOM
      1 C1           4.9000   -12.6830    26.3430 c6         1 3MK       0.397300
      2 O1           4.1110   -11.6320    26.8090 oh         1 3MK      -0.726000
      3 C2           6.3570   -12.3330    26.5920 c6         1 3MK       0.153300
      4 O2           6.5640   -12.2380    27.9780 oh         1 3MK      -0.701000
      5 C3           6.7630   -11.0630    25.8330 c6         1 3MK       0.139300
      6 O3           8.1330   -11.2010    25.5320 oh         1 3MK      -0.729000
      7 C4           5.9030   -10.8910    24.5680 c6         1 3MK       0.115300
      8 O4           6.6490   -10.1710    23.6150 oh         1 3MK      -0.726000
      9 C5           5.4840   -12.2620    24.0300 c6         1 3MK       0.152300
     10 O5           4.6870   -12.9570    24.9850 os         1 3MK      -0.486000
     11 C6           4.7120   -12.1960    22.7310 c3         1 3MK       0.155600
     12 O6           3.6230   -11.3150    22.8640 oh         1 3MK      -0.720000
     13 H1           4.6470   -13.6130    26.8680 h2         1 3MK       0.073700
     14 HO1          3.1860   -11.8970    26.7780 ho         1 3MK       0.517000
     15 H2           6.9430   -13.1630    26.1700 h1         1 3MK       0.056700
     16 HO2          7.5120   -12.2100    28.1380 ho         1 3MK       0.516000
     17 H3           6.5980   -10.1940    26.4840 h1         1 3MK       0.062700
     18 HO3          8.4120   -10.4180    25.0450 ho         1 3MK       0.525000
     19 H4           5.0040   -10.3410    24.8550 h1         1 3MK       0.077700
     20 HO4          6.0410    -9.6560    23.0780 ho         1 3MK       0.517000
     21 H5           6.3940   -12.8450    23.8170 h1         1 3MK       0.061700
     22 H61          5.4060   -11.8770    21.9430 h1         1 3MK       0.033200
     23 H62          4.3880   -13.2110    22.4650 h1         1 3MK       0.033200
     24 HO6          3.2060   -11.2220    22.0030 ho         1 3MK       0.503000
@<TRIPOS>BOND
     1     1     2 1   
     2     1     3 1   
     3     1    10 1   
     4     1    13 1   
     5     2    14 1   
     6     3     4 1   
     7     3     5 1   
     8     3    15 1   
     9     4    16 1   
    10     5     6 1   
    11     5     7 1   
    12     5    17 1   
    13     6    18 1   
    14     7     8 1   
    15     7     9 1   
    16     7    19 1   
    17     8    20 1   
    18     9    10 1   
    19     9    11 1   
    20     9    21 1   
    21    11    12 1   
    22    11    22 1   
    23    11    23 1   
    24    12    24 1   
@<TRIPOS>SUBSTRUCTURE
     1 3MK         1 TEMP              0 ****  ****    0 ROOT
