@<TRIPOS>MOLECULE
3MK
   24    24     1     0     0
SMALL
No Charge or Current Charge


@<TRIPOS>ATOM
      1 C1           4.8810   -12.7680    26.4390 c6         1 3MK       0.397300
      2 O1           4.0240   -11.7530    26.9490 oh         1 3MK      -0.726000
      3 C2           6.4020   -12.4240    26.6470 c6         1 3MK       0.153300
      4 O2           6.8210   -12.4070    28.0330 oh         1 3MK      -0.701000
      5 C3           6.7230   -11.0490    25.9720 c6         1 3MK       0.139300
      6 O3           8.1350   -10.9120    25.7570 oh         1 3MK      -0.729000
      7 C4           5.9900   -10.8630    24.5990 c6         1 3MK       0.115300
      8 O4           6.8980   -10.2290    23.6560 oh         1 3MK      -0.726000
      9 C5           5.4390   -12.2320    24.0760 c6         1 3MK       0.152300
     10 O5           4.5310   -12.8550    25.0410 os         1 3MK      -0.486000
     11 C6           4.6750   -12.1140    22.7150 c3         1 3MK       0.155600
     12 O6           3.4920   -11.2920    22.7880 oh         1 3MK      -0.720000
     13 H1           4.6530   -13.7290    26.9270 h2         1 3MK       0.073700
     14 HO1          3.2400   -11.8140    26.3610 ho         1 3MK       0.517000
     15 H2           6.9740   -13.2020    26.1200 h1         1 3MK       0.056700
     16 HO2          7.7100   -11.9780    28.0290 ho         1 3MK       0.516000
     17 H3           6.3680   -10.2470    26.6370 h1         1 3MK       0.062700
     18 HO3          8.1370   -10.5510    24.8260 ho         1 3MK       0.525000
     19 H4           5.1210   -10.2090    24.7770 h1         1 3MK       0.077700
     20 HO4          6.3410    -9.7930    22.9650 ho         1 3MK       0.517000
     21 H5           6.2900   -12.9110    23.9160 h1         1 3MK       0.061700
     22 H61          5.3660   -11.7200    21.9570 h1         1 3MK       0.033200
     23 H62          4.4040   -13.1300    22.3980 h1         1 3MK       0.033200
     24 HO6          3.0090   -11.4060    21.9360 ho         1 3MK       0.503000
@<TRIPOS>BOND
     1     1     2 1   
     2     1     3 1   
     3     1    10 1   
     4     1    13 1   
     5     2    14 1   
     6     3     4 1   
     7     3     5 1   
     8     3    15 1   
     9     4    16 1   
    10     5     6 1   
    11     5     7 1   
    12     5    17 1   
    13     6    18 1   
    14     7     8 1   
    15     7     9 1   
    16     7    19 1   
    17     8    20 1   
    18     9    10 1   
    19     9    11 1   
    20     9    21 1   
    21    11    12 1   
    22    11    22 1   
    23    11    23 1   
    24    12    24 1   
@<TRIPOS>SUBSTRUCTURE
     1 3MK         1 TEMP              0 ****  ****    0 ROOT
