@<TRIPOS>MOLECULE
3ML
   18    18     1     0     0
SMALL
No Charge or Current Charge


@<TRIPOS>ATOM
      1 CAA         -1.4100     2.7250     0.3240 c3         1 3ML      -0.044900
      2 CAI         -1.3230     1.2250     0.1470 c2         1 3ML      -0.092400
      3 CAE         -2.2590     0.3790    -0.2890 ce         1 3ML      -0.349200
      4 CAJ         -1.7930    -1.0020    -0.2970 c          1 3ML       0.648300
      5 OAC         -2.4370    -1.9900    -0.6170 o          1 3ML      -0.538000
      6 OAG         -0.5180    -1.0010     0.1900 os         1 3ML      -0.382100
      7 CAK         -0.0910     0.3700     0.4540 c5         1 3ML       0.200500
      8 CAF          1.1180     0.7150    -0.4430 c3         1 3ML      -0.217400
      9 CAH          2.3300    -0.1120    -0.0080 c          1 3ML       0.730000
     10 OAD          3.0100     0.3150     0.9120 o          1 3ML      -0.726000
     11 OAB          2.5540    -1.1660    -0.5840 o          1 3ML      -0.726000
     12 HAA         -0.7200     3.2430    -0.3530 hc         1 3ML       0.045033
     13 HAAA        -2.4210     3.0920     0.1130 hc         1 3ML       0.045033
     14 HAAB        -1.1560     3.0150     1.3500 hc         1 3ML       0.045033
     15 HAE         -3.2680     0.6350    -0.6020 ha         1 3ML       0.198000
     16 HAK          0.1980     0.4580     1.5110 h1         1 3ML       0.101700
     17 HAF          0.8370     0.4870    -1.4780 hc         1 3ML       0.031700
     18 HAFA         1.3210     1.7780    -0.2690 hc         1 3ML       0.031700
@<TRIPOS>BOND
     1     1     2 1   
     2     1    12 1   
     3     1    13 1   
     4     1    14 1   
     5     2     3 2   
     6     2     7 1   
     7     3     4 1   
     8     3    15 1   
     9     4     5 2   
    10     4     6 1   
    11     6     7 1   
    12     7     8 1   
    13     7    16 1   
    14     8     9 1   
    15     8    17 1   
    16     8    18 1   
    17     9    10 1   
    18     9    11 1   
@<TRIPOS>SUBSTRUCTURE
     1 3ML         1 TEMP              0 ****  ****    0 ROOT
