@<TRIPOS>MOLECULE
3ML
   18    18     1     0     0
SMALL
bcc


@<TRIPOS>ATOM
      1 CAA         -1.3490     2.6950     0.1890 c3         1 3ML      -0.044900
      2 CAI         -1.3400     1.2150     0.1450 c2         1 3ML      -0.092400
      3 CAE         -2.3260     0.3770    -0.1820 ce         1 3ML      -0.299200
      4 CAJ         -1.8270    -0.9920    -0.0630 c          1 3ML       0.723800
      5 OAC         -2.3910    -2.0400    -0.2600 o          1 3ML      -0.613500
      6 OAG         -0.5470    -0.9450     0.3370 os         1 3ML      -0.358900
      7 CAK         -0.1200     0.4130     0.4790 c5         1 3ML       0.177300
      8 CAF          1.0620     0.6850    -0.4290 c3         1 3ML      -0.217400
      9 CAH          2.3220    -0.1370    -0.0810 c          1 3ML       0.940600
     10 OAD          2.4590    -0.4810     1.1080 o          1 3ML      -0.831300
     11 OAB          3.1090    -0.3500    -1.0220 o          1 3ML      -0.831300
     12 HAA         -0.6390     3.1060    -0.5310 hc         1 3ML       0.045033
     13 HAAA        -2.3350     3.0970    -0.0340 hc         1 3ML       0.045033
     14 HAAB        -1.0400     3.0530     1.1730 hc         1 3ML       0.045033
     15 HAE         -3.3330     0.6220    -0.4820 ha         1 3ML       0.148000
     16 HAK          0.1700     0.5700     1.5230 h1         1 3ML       0.101700
     17 HAF          0.7730     0.5330    -1.4720 hc         1 3ML       0.031700
     18 HAFA         1.3240     1.7450    -0.3350 hc         1 3ML       0.031700
@<TRIPOS>BOND
     1     1     2 1   
     2     1    12 1   
     3     1    13 1   
     4     1    14 1   
     5     2     3 2   
     6     2     7 1   
     7     3     4 1   
     8     3    15 1   
     9     4     5 2   
    10     4     6 1   
    11     6     7 1   
    12     7     8 1   
    13     7    16 1   
    14     8     9 1   
    15     8    17 1   
    16     8    18 1   
    17     9    10 1   
    18     9    11 1   
@<TRIPOS>SUBSTRUCTURE
     1 3ML         1 TEMP              0 ****  ****    0 ROOT
