@<TRIPOS>MOLECULE
3MM
   29    28     1     0     0
SMALL
abcg2


@<TRIPOS>ATOM
      1 CAA          4.5170     0.0410     0.3630 c3         1 3MM       0.032900
      2 SAI          3.1590    -1.0600    -0.0900 ss         1 3MM      -0.405000
      3 CAG          1.7470    -0.0050     0.3490 c3         1 3MM       0.045600
      4 CAH          0.4710    -0.6720    -0.1510 c3         1 3MM      -0.087400
      5 CAK         -0.8660    -0.1910     0.4160 c3         1 3MM      -0.038700
      6 CAJ         -1.9330    -1.2460    -0.0160 c          1 3MM       0.713000
      7 OAF         -2.3030    -1.2180    -1.2020 o          1 3MM      -0.661000
      8 NAL         -1.2570     1.2400     0.0330 n4         1 3MM      -0.470000
      9 CAB         -0.9630     1.5630    -1.3910 c3         1 3MM       0.076900
     10 CAC         -2.7160     1.4420     0.2860 c3         1 3MM       0.076900
     11 CAD         -0.5360     2.2140     0.9020 c3         1 3MM       0.076900
     12 OXT         -2.2490    -2.0530     0.8690 o          1 3MM      -0.661000
     13 H1AA         4.5080     0.9470    -0.2420 h1         1 3MM       0.060033
     14 H2AA         4.4730     0.3090     1.4170 h1         1 3MM       0.060033
     15 H3AA         5.4470    -0.4920     0.1770 h1         1 3MM       0.060033
     16 H1AG         1.7200     0.1310     1.4320 h1         1 3MM       0.045200
     17 H2AG         1.9140     0.9710    -0.1100 h1         1 3MM       0.045200
     18 H1AH         0.4470    -0.6730    -1.2420 hc         1 3MM       0.093700
     19 H2AH         0.5140    -1.7250     0.1440 hc         1 3MM       0.093700
     20 HAK         -0.8150    -0.1720     1.5050 hx         1 3MM       0.076700
     21 H1AB        -1.4310     0.8200    -2.0260 hx         1 3MM       0.084811
     22 H2AB        -1.3610     2.5510    -1.6080 hx         1 3MM       0.084811
     23 H3AB         0.1120     1.5730    -1.5460 hx         1 3MM       0.084811
     24 H1AC        -2.9450     1.1300     1.3020 hx         1 3MM       0.084811
     25 H2AC        -2.9470     2.4980     0.1700 hx         1 3MM       0.084811
     26 H3AC        -3.2960     0.8660    -0.4250 hx         1 3MM       0.084811
     27 H1AD         0.5330     2.1400     0.7460 hx         1 3MM       0.084811
     28 H2AD        -0.8580     3.2200     0.6440 hx         1 3MM       0.084811
     29 H3AD        -0.7700     2.0100     1.9430 hx         1 3MM       0.084811
@<TRIPOS>BOND
     1     1     2 1   
     2     1    13 1   
     3     1    14 1   
     4     1    15 1   
     5     2     3 1   
     6     3     4 1   
     7     3    16 1   
     8     3    17 1   
     9     4     5 1   
    10     4    18 1   
    11     4    19 1   
    12     5     6 1   
    13     5     8 1   
    14     5    20 1   
    15     6     7 1   
    16     6    12 1   
    17     8     9 1   
    18     8    10 1   
    19     8    11 1   
    20     9    21 1   
    21     9    22 1   
    22     9    23 1   
    23    10    24 1   
    24    10    25 1   
    25    10    26 1   
    26    11    27 1   
    27    11    28 1   
    28    11    29 1   
@<TRIPOS>SUBSTRUCTURE
     1 3MM         1 TEMP              0 ****  ****    0 ROOT
