@<TRIPOS>MOLECULE
3MM
   29    28     1     0     0
SMALL
No Charge or Current Charge


@<TRIPOS>ATOM
      1 CAA          4.5540     0.1300     0.4560 c3         1 3MM       0.032900
      2 SAI          3.2500    -0.9940    -0.2190 ss         1 3MM      -0.405000
      3 CAG          1.7390    -0.0500     0.2630 c3         1 3MM       0.045600
      4 CAH          0.4750    -0.7890    -0.2090 c3         1 3MM      -0.087400
      5 CAK         -0.8790    -0.2390     0.3370 c3         1 3MM      -0.038700
      6 CAJ         -1.9850    -1.2920     0.0120 c          1 3MM       0.713000
      7 OAF         -2.2790    -1.4890    -1.1590 o          1 3MM      -0.661000
      8 NAL         -1.2410     1.2560     0.0290 n4         1 3MM      -0.470000
      9 CAB         -0.9920     1.5890    -1.4490 c3         1 3MM       0.076900
     10 CAC         -2.7270     1.4990     0.3360 c3         1 3MM       0.076900
     11 CAD         -0.4370     2.2150     0.9180 c3         1 3MM       0.076900
     12 OXT         -2.5510    -1.8280     0.9540 o          1 3MM      -0.661000
     13 H1AA         4.4770     1.1170    -0.0180 h1         1 3MM       0.060033
     14 H2AA         4.4250     0.2400     1.5410 h1         1 3MM       0.060033
     15 H3AA         5.5470    -0.2900     0.2530 h1         1 3MM       0.060033
     16 H1AG         1.7210     0.0670     1.3540 h1         1 3MM       0.045200
     17 H2AG         1.7900     0.9410    -0.2050 h1         1 3MM       0.045200
     18 H1AH         0.4560    -0.8090    -1.3050 hc         1 3MM       0.093700
     19 H2AH         0.5640    -1.8350     0.1110 hc         1 3MM       0.093700
     20 HAK         -0.8090    -0.2830     1.4250 hx         1 3MM       0.076700
     21 H1AB        -1.5810     0.9110    -2.0710 hx         1 3MM       0.084811
     22 H2AB        -1.2920     2.6210    -1.6400 hx         1 3MM       0.084811
     23 H3AB         0.0690     1.4660    -1.6720 hx         1 3MM       0.084811
     24 H1AC        -2.9220     1.2480     1.3800 hx         1 3MM       0.084811
     25 H2AC        -2.9630     2.5500     0.1580 hx         1 3MM       0.084811
     26 H3AC        -3.3380     0.8720    -0.3160 hx         1 3MM       0.084811
     27 H1AD         0.6210     2.1620     0.6670 hx         1 3MM       0.084811
     28 H2AD        -0.7930     3.2340     0.7540 hx         1 3MM       0.084811
     29 H3AD        -0.5840     1.9400     1.9640 hx         1 3MM       0.084811
@<TRIPOS>BOND
     1     1     2 1   
     2     1    13 1   
     3     1    14 1   
     4     1    15 1   
     5     2     3 1   
     6     3     4 1   
     7     3    16 1   
     8     3    17 1   
     9     4     5 1   
    10     4    18 1   
    11     4    19 1   
    12     5     6 1   
    13     5     8 1   
    14     5    20 1   
    15     6     7 1   
    16     6    12 1   
    17     8     9 1   
    18     8    10 1   
    19     8    11 1   
    20     9    21 1   
    21     9    22 1   
    22     9    23 1   
    23    10    24 1   
    24    10    25 1   
    25    10    26 1   
    26    11    27 1   
    27    11    28 1   
    28    11    29 1   
@<TRIPOS>SUBSTRUCTURE
     1 3MM         1 TEMP              0 ****  ****    0 ROOT
