@<TRIPOS>MOLECULE
3MN
   60    64     1     0     0
SMALL
No Charge or Current Charge


@<TRIPOS>ATOM
      1 C2          -3.8240     3.0400     0.8340 c3         1 3MN       0.075600
      2 N4          -5.1070     2.9590     0.1210 na         1 3MN      -0.169500
      3 C29         -5.4850     3.7220    -0.9650 cc         1 3MN       0.389400
      4 C21         -6.1510     2.1070     0.4090 cc         1 3MN      -0.234000
      5 C30         -7.1220     2.3900    -0.5170 cd         1 3MN       0.228900
      6 N5          -6.7060     3.3930    -1.3670 nd         1 3MN      -0.672000
      7 C1          -2.8130     1.9780     0.3580 c3         1 3MN      -0.121400
      8 C16         -1.4690     2.0540     1.1060 c3         1 3MN       0.119000
      9 C18          0.4100     1.2860    -0.3500 c          1 3MN       0.614000
     10 N2           1.1980     0.1530    -0.4910 n          1 3MN      -0.426800
     11 C14          0.7330    -0.9320     0.4300 c5         1 3MN       0.100700
     12 C4          -0.4010    -0.2140     1.2480 c          1 3MN       0.568000
     13 N1          -0.5130     1.0320     0.6400 n          1 3MN      -0.384400
     14 O2          -1.0730    -0.6020     2.1950 o          1 3MN      -0.496000
     15 C11          2.3790     0.1270    -1.3890 c3         1 3MN       0.167300
     16 C19          3.6840     0.5400    -0.7150 ca         1 3MN      -0.117300
     17 C12          3.8740     1.8640    -0.2710 ca         1 3MN      -0.055000
     18 C15          5.0750     2.2410     0.3610 ca         1 3MN      -0.018000
     19 C23          6.0950     1.2890     0.5470 ca         1 3MN      -0.066000
     20 C5           5.9130    -0.0310     0.1000 ca         1 3MN      -0.115000
     21 C6           4.7140    -0.4040    -0.5290 ca         1 3MN      -0.083000
     22 C7           5.2570     3.5920     0.8150 cg         1 3MN       0.320000
     23 N3           5.3960     4.6920     1.1830 n1         1 3MN      -0.446000
     24 C20         -0.5370    -2.9380    -2.6720 ca         1 3MN      -0.115000
     25 C13         -0.8190    -4.1960    -2.1460 ca         1 3MN      -0.083000
     26 C17         -0.7040    -4.4140    -0.7680 ca         1 3MN      -0.043000
     27 C24         -0.2680    -3.3740     0.1020 ca         1 3MN      -0.008000
     28 C25          0.1230    -2.0980    -0.4380 ca         1 3MN      -0.089300
     29 C26         -0.0870    -1.9100    -1.8370 ca         1 3MN      -0.095000
     30 C27         -1.0520    -5.6850    -0.2690 ca         1 3MN      -0.100000
     31 C8          -1.0070    -5.9450     1.1050 ca         1 3MN      -0.103000
     32 C9          -0.6340    -4.9240     1.9850 ca         1 3MN      -0.103000
     33 C10         -0.2780    -3.6570     1.4920 ca         1 3MN      -0.100000
     34 C28          1.9400    -1.3240     1.3380 c3         1 3MN      -0.089100
     35 H21A        -4.0140     2.9100     1.9080 h1         1 3MN       0.061200
     36 H22         -3.4000     4.0420     0.6870 h1         1 3MN       0.061200
     37 H29         -4.8420     4.4780    -1.4010 h5         1 3MN       0.053100
     38 H21         -6.1320     1.3870     1.2180 h4         1 3MN       0.156000
     39 H30         -8.0970     1.9270    -0.6170 h4         1 3MN       0.037100
     40 H11         -2.6350     2.1050    -0.7170 hc         1 3MN       0.068700
     41 H12A        -3.2460     0.9790     0.4970 hc         1 3MN       0.068700
     42 H161        -1.6430     1.9240     2.1830 h1         1 3MN       0.067700
     43 H162        -1.0300     3.0510     0.9670 h1         1 3MN       0.067700
     44 H111         2.4890    -0.8890    -1.7900 h1         1 3MN       0.072700
     45 H112         2.1970     0.7870    -2.2470 h1         1 3MN       0.072700
     46 H12          3.0880     2.6030    -0.4160 ha         1 3MN       0.141000
     47 H23          7.0270     1.5690     1.0340 ha         1 3MN       0.128000
     48 H5           6.7030    -0.7660     0.2430 ha         1 3MN       0.123000
     49 H6           4.5860    -1.4300    -0.8690 ha         1 3MN       0.117000
     50 H20         -0.6630    -2.7560    -3.7380 ha         1 3MN       0.119000
     51 H13         -1.1590    -4.9910    -2.8070 ha         1 3MN       0.118000
     52 H26          0.0970    -0.9570    -2.3220 ha         1 3MN       0.118000
     53 H27         -1.3700    -6.4730    -0.9490 ha         1 3MN       0.114000
     54 H8          -1.2830    -6.9260     1.4870 ha         1 3MN       0.117000
     55 H9          -0.6290    -5.1090     3.0570 ha         1 3MN       0.116000
     56 H10         -0.0590    -2.9040     2.2310 ha         1 3MN       0.127000
     57 H281         2.4990    -0.4320     1.6420 hc         1 3MN       0.058033
     58 H282         1.6650    -1.8170     2.2710 hc         1 3MN       0.058033
     59 H283         2.6330    -1.9830     0.8030 hc         1 3MN       0.058033
     60 O1           0.5190     2.3240    -0.9810 o          1 3MN      -0.548000
@<TRIPOS>BOND
     1     1     2 1   
     2     1     7 1   
     3     1    35 1   
     4     1    36 1   
     5     2     3 1   
     6     2     4 1   
     7     3     6 2   
     8     3    37 1   
     9     4     5 2   
    10     4    38 1   
    11     5     6 1   
    12     5    39 1   
    13     7     8 1   
    14     7    40 1   
    15     7    41 1   
    16     8    13 1   
    17     8    42 1   
    18     8    43 1   
    19     9    10 1   
    20     9    13 1   
    21     9    60 2   
    22    10    11 1   
    23    10    15 1   
    24    11    12 1   
    25    11    28 1   
    26    11    34 1   
    27    12    13 1   
    28    12    14 2   
    29    15    16 1   
    30    15    44 1   
    31    15    45 1   
    32    16    17 ar  
    33    16    21 ar  
    34    17    18 ar  
    35    17    46 1   
    36    18    19 ar  
    37    18    22 1   
    38    19    20 ar  
    39    19    47 1   
    40    20    21 ar  
    41    20    48 1   
    42    21    49 1   
    43    22    23 3   
    44    24    25 ar  
    45    24    29 ar  
    46    24    50 1   
    47    25    26 ar  
    48    25    51 1   
    49    26    27 ar  
    50    26    30 ar  
    51    27    28 ar  
    52    27    33 ar  
    53    28    29 ar  
    54    29    52 1   
    55    30    31 ar  
    56    30    53 1   
    57    31    32 ar  
    58    31    54 1   
    59    32    33 ar  
    60    32    55 1   
    61    33    56 1   
    62    34    57 1   
    63    34    58 1   
    64    34    59 1   
@<TRIPOS>SUBSTRUCTURE
     1 3MN         1 TEMP              0 ****  ****    0 ROOT
