@<TRIPOS>MOLECULE
3MN
   60    64     1     0     0
SMALL
bcc


@<TRIPOS>ATOM
      1 C2          -3.8470     2.9240     0.8580 c3         1 3MN       0.046300
      2 N4          -5.0070     2.9780    -0.0070 na         1 3MN      -0.190900
      3 C29         -5.2710     3.9220    -0.9350 cc         1 3MN       0.389400
      4 C21         -6.0030     2.0470    -0.0910 cc         1 3MN      -0.266600
      5 C30         -6.8360     2.4900    -1.0780 cd         1 3MN       0.294200
      6 N5          -6.3690     3.6640    -1.5980 nd         1 3MN      -0.672000
      7 C1          -2.8000     1.9410     0.3510 c3         1 3MN      -0.121400
      8 C16         -1.5820     1.9420     1.2640 c3         1 3MN       0.119000
      9 C18          0.3290     1.2930    -0.2030 c          1 3MN       0.823500
     10 N2           1.0960     0.1970    -0.3890 n          1 3MN      -0.493800
     11 C14          0.7250    -0.9030     0.4880 c5         1 3MN       0.100700
     12 C4          -0.3710    -0.2390     1.3310 c          1 3MN       0.710500
     13 N1          -0.5710     1.0060     0.8200 n          1 3MN      -0.518400
     14 O2          -0.9620    -0.7270     2.2620 o          1 3MN      -0.571500
     15 C11          2.1940     0.1640    -1.3310 c3         1 3MN       0.167300
     16 C19          3.5360     0.5510    -0.7570 ca         1 3MN      -0.117300
     17 C12          3.7270     1.7810    -0.1410 ca         1 3MN      -0.073000
     18 C15          4.9800     2.1130     0.3710 ca         1 3MN      -0.018000
     19 C23          6.0560     1.2310     0.2670 ca         1 3MN      -0.084000
     20 C5           5.8640     0.0130    -0.3580 ca         1 3MN      -0.133000
     21 C6           4.6140    -0.3220    -0.8630 ca         1 3MN      -0.101000
     22 C7           5.1650     3.3790     1.0040 cg         1 3MN       0.230800
     23 N3           5.3140     4.4020     1.5140 n1         1 3MN      -0.356800
     24 C20         -0.7250    -2.8420    -2.4730 ca         1 3MN      -0.133000
     25 C13         -0.9200    -4.0980    -1.9860 ca         1 3MN      -0.101000
     26 C17         -0.6810    -4.3720    -0.6210 ca         1 3MN      -0.043000
     27 C24         -0.2110    -3.3440     0.2510 ca         1 3MN      -0.008000
     28 C25          0.0830    -2.0560    -0.3100 ca         1 3MN      -0.089300
     29 C26         -0.2220    -1.8340    -1.6310 ca         1 3MN      -0.113000
     30 C27         -0.9400    -5.6690    -0.1170 ca         1 3MN      -0.118000
     31 C8          -0.7850    -5.9570     1.2090 ca         1 3MN      -0.121000
     32 C9          -0.3830    -4.9360     2.0880 ca         1 3MN      -0.121000
     33 C10         -0.1100    -3.6760     1.6270 ca         1 3MN      -0.118000
     34 C28          1.9380    -1.3010     1.3350 c3         1 3MN      -0.089100
     35 H21A        -4.1750     2.6540     1.8620 h1         1 3MN       0.061200
     36 H22         -3.4290     3.9290     0.9160 h1         1 3MN       0.061200
     37 H29         -4.6290     4.7790    -1.0760 h5         1 3MN       0.053100
     38 H21         -6.0340     1.1780     0.5460 h4         1 3MN       0.174000
     39 H30         -7.7440     2.0280    -1.4340 h4         1 3MN       0.037100
     40 H11         -2.5050     2.2170    -0.6630 hc         1 3MN       0.068700
     41 H12A        -3.2250     0.9350     0.3070 hc         1 3MN       0.068700
     42 H161        -1.8600     1.6670     2.2810 h1         1 3MN       0.067700
     43 H162        -1.1330     2.9350     1.3100 h1         1 3MN       0.067700
     44 H111         2.2590    -0.8400    -1.7520 h1         1 3MN       0.072700
     45 H112         1.9420     0.8260    -2.1610 h1         1 3MN       0.072700
     46 H12          2.9170     2.4940    -0.0600 ha         1 3MN       0.159000
     47 H23          7.0230     1.5020     0.6690 ha         1 3MN       0.146000
     48 H5           6.6870    -0.6820    -0.4490 ha         1 3MN       0.141000
     49 H6           4.4750    -1.2830    -1.3430 ha         1 3MN       0.135000
     50 H20         -0.9330    -2.6090    -3.5090 ha         1 3MN       0.137000
     51 H13         -1.2780    -4.8950    -2.6270 ha         1 3MN       0.136000
     52 H26         -0.0660    -0.8590    -2.0710 ha         1 3MN       0.136000
     53 H27         -1.2780    -6.4310    -0.8090 ha         1 3MN       0.132000
     54 H8          -0.9900    -6.9500     1.5840 ha         1 3MN       0.135000
     55 H9          -0.2990    -5.1410     3.1480 ha         1 3MN       0.134000
     56 H10          0.1380    -2.9210     2.3520 ha         1 3MN       0.145000
     57 H281         2.4290    -0.4060     1.7150 hc         1 3MN       0.058033
     58 H282         1.6800    -1.9170     2.1870 hc         1 3MN       0.058033
     59 H283         2.6540    -1.8590     0.7330 hc         1 3MN       0.058033
     60 O1           0.3930     2.3530    -0.7860 o          1 3MN      -0.623500
@<TRIPOS>BOND
     1     1     2 1   
     2     1     7 1   
     3     1    35 1   
     4     1    36 1   
     5     2     3 1   
     6     2     4 1   
     7     3     6 2   
     8     3    37 1   
     9     4     5 2   
    10     4    38 1   
    11     5     6 1   
    12     5    39 1   
    13     7     8 1   
    14     7    40 1   
    15     7    41 1   
    16     8    13 1   
    17     8    42 1   
    18     8    43 1   
    19     9    10 1   
    20     9    13 1   
    21     9    60 2   
    22    10    11 1   
    23    10    15 1   
    24    11    12 1   
    25    11    28 1   
    26    11    34 1   
    27    12    13 1   
    28    12    14 2   
    29    15    16 1   
    30    15    44 1   
    31    15    45 1   
    32    16    17 ar  
    33    16    21 ar  
    34    17    18 ar  
    35    17    46 1   
    36    18    19 ar  
    37    18    22 1   
    38    19    20 ar  
    39    19    47 1   
    40    20    21 ar  
    41    20    48 1   
    42    21    49 1   
    43    22    23 3   
    44    24    25 ar  
    45    24    29 ar  
    46    24    50 1   
    47    25    26 ar  
    48    25    51 1   
    49    26    27 ar  
    50    26    30 ar  
    51    27    28 ar  
    52    27    33 ar  
    53    28    29 ar  
    54    29    52 1   
    55    30    31 ar  
    56    30    53 1   
    57    31    32 ar  
    58    31    54 1   
    59    32    33 ar  
    60    32    55 1   
    61    33    56 1   
    62    34    57 1   
    63    34    58 1   
    64    34    59 1   
@<TRIPOS>SUBSTRUCTURE
     1 3MN         1 TEMP              0 ****  ****    0 ROOT
