@<TRIPOS>MOLECULE
3MO
   14    14     1     0     0
SMALL
abcg2


@<TRIPOS>ATOM
      1 N2           0.5390     0.5250    -0.1340 n          1 3MO      -0.438800
      2 C4          -1.7360     0.4080    -0.0230 c5         1 3MO       0.143600
      3 O6           0.9280    -1.7350     0.0730 o          1 3MO      -0.531000
      4 C1           0.2030    -0.7680     0.0410 c          1 3MO       0.692100
      5 O5          -1.1300    -0.8730     0.1810 os         1 3MO      -0.415100
      6 C3          -0.5830     1.3970     0.1180 c5         1 3MO       0.059000
      7 C7           1.8960     1.0030    -0.1080 c3         1 3MO       0.105300
      8 H41         -2.5210     0.5510     0.7170 h1         1 3MO       0.068200
      9 H42         -2.1750     0.4370    -1.0220 h1         1 3MO       0.068200
     10 H31         -0.5260     1.8400     1.1180 h1         1 3MO       0.057200
     11 H32         -0.6410     2.2040    -0.6120 h1         1 3MO       0.057200
     12 H71          2.1780     1.3640     0.8830 h1         1 3MO       0.045367
     13 H72          2.5730     0.2020    -0.3940 h1         1 3MO       0.045367
     14 H73          2.0130     1.8190    -0.8190 h1         1 3MO       0.045367
@<TRIPOS>BOND
     1     1     4 1   
     2     1     6 1   
     3     1     7 1   
     4     2     5 1   
     5     2     6 1   
     6     2     8 1   
     7     2     9 1   
     8     3     4 2   
     9     4     5 1   
    10     6    10 1   
    11     6    11 1   
    12     7    12 1   
    13     7    13 1   
    14     7    14 1   
@<TRIPOS>SUBSTRUCTURE
     1 3MO         1 TEMP              0 ****  ****    0 ROOT
