@<TRIPOS>MOLECULE
3MO
   14    14     1     0     0
SMALL
No Charge or Current Charge


@<TRIPOS>ATOM
      1 N2           0.5410     0.5540     0.0140 n          1 3MO      -0.438800
      2 C4          -1.7600     0.3850    -0.0260 c5         1 3MO       0.143600
      3 O6           1.0020    -1.7100     0.2750 o          1 3MO      -0.531000
      4 C1           0.2120    -0.7850     0.1670 c          1 3MO       0.692100
      5 O5          -1.1400    -0.8900     0.2860 os         1 3MO      -0.415100
      6 C3          -0.6210     1.4430     0.0170 c5         1 3MO       0.059000
      7 C7           1.9450     0.9920    -0.0910 c3         1 3MO       0.105300
      8 H41         -2.5660     0.5980     0.6880 h1         1 3MO       0.068200
      9 H42         -2.1940     0.3230    -1.0330 h1         1 3MO       0.068200
     10 H31         -0.6590     2.0480     0.9330 h1         1 3MO       0.057200
     11 H32         -0.6390     2.1090    -0.8560 h1         1 3MO       0.057200
     12 H71          2.4860     0.7230     0.8250 h1         1 3MO       0.045367
     13 H72          2.4230     0.5040    -0.9500 h1         1 3MO       0.045367
     14 H73          1.9880     2.0800    -0.2280 h1         1 3MO       0.045367
@<TRIPOS>BOND
     1     1     4 1   
     2     1     6 1   
     3     1     7 1   
     4     2     5 1   
     5     2     6 1   
     6     2     8 1   
     7     2     9 1   
     8     3     4 2   
     9     4     5 1   
    10     6    10 1   
    11     6    11 1   
    12     7    12 1   
    13     7    13 1   
    14     7    14 1   
@<TRIPOS>SUBSTRUCTURE
     1 3MO         1 TEMP              0 ****  ****    0 ROOT
