@<TRIPOS>MOLECULE
3MP
   14    14     1     0     0
SMALL
bcc


@<TRIPOS>ATOM
      1 CB           0.0090    -0.0150     2.4600 c3         1 3MP      -0.042800
      2 CG           0.0300    -0.0170     0.9620 ca         1 3MP      -0.192600
      3 CD1          1.2230     0.0420     0.2460 ca         1 3MP      -0.095000
      4 CD2         -1.1450    -0.0720     0.2190 ca         1 3MP       0.399200
      5 CE1          1.1880     0.0460    -1.1390 ca         1 3MP      -0.244300
      6 CZ          -0.0460    -0.0090    -1.7710 ca         1 3MP       0.395200
      7 NE2         -1.1940    -0.0680    -1.1080 nb         1 3MP      -0.663000
      8 HB1          0.6910    -0.7620     2.8660 hc         1 3MP       0.044700
      9 HB2          0.3180     0.9530     2.8560 hc         1 3MP       0.044700
     10 HB3         -0.9880    -0.2280     2.8440 hc         1 3MP       0.044700
     11 HD1          2.1710     0.0840     0.7690 ha         1 3MP       0.134000
     12 HD2         -2.1000    -0.1240     0.7340 h4         1 3MP       0.016100
     13 HE1          2.0980     0.0910    -1.7220 ha         1 3MP       0.140000
     14 HZ          -0.1080    -0.0080    -2.8540 h4         1 3MP       0.018100
@<TRIPOS>BOND
     1     1     2 1   
     2     1     8 1   
     3     1     9 1   
     4     1    10 1   
     5     2     3 ar  
     6     2     4 ar  
     7     3     5 ar  
     8     3    11 1   
     9     4     7 ar  
    10     4    12 1   
    11     5     6 ar  
    12     5    13 1   
    13     6     7 ar  
    14     6    14 1   
@<TRIPOS>SUBSTRUCTURE
     1 3MP         1 TEMP              0 ****  ****    0 ROOT
