@<TRIPOS>MOLECULE
3MP
   14    14     1     0     0
SMALL
No Charge or Current Charge


@<TRIPOS>ATOM
      1 CB           0.0140    -0.0170     2.4800 c3         1 3MP      -0.042800
      2 CG           0.0270    -0.0140     0.9580 ca         1 3MP      -0.127300
      3 CD1          1.2440     0.0170     0.2540 ca         1 3MP      -0.077000
      4 CD2         -1.1770    -0.0350     0.2230 ca         1 3MP       0.333900
      5 CE1          1.2010     0.0210    -1.1500 ca         1 3MP      -0.161000
      6 CZ          -0.0450    -0.0030    -1.7990 ca         1 3MP       0.329900
      7 NE2         -1.2220    -0.0300    -1.1310 nb         1 3MP      -0.663000
      8 HB1          0.8130    -0.6520     2.8820 hc         1 3MP       0.044700
      9 HB2          0.1600     0.9960     2.8750 hc         1 3MP       0.044700
     10 HB3         -0.9370    -0.3960     2.8740 hc         1 3MP       0.044700
     11 HD1          2.1970     0.0360     0.7800 ha         1 3MP       0.116000
     12 HD2         -2.1400    -0.0550     0.7340 h4         1 3MP       0.016100
     13 HE1          2.1170     0.0440    -1.7330 ha         1 3MP       0.122000
     14 HZ          -0.1040     0.0010    -2.8870 h4         1 3MP       0.018100
@<TRIPOS>BOND
     1     1     2 1   
     2     1     8 1   
     3     1     9 1   
     4     1    10 1   
     5     2     3 ar  
     6     2     4 ar  
     7     3     5 ar  
     8     3    11 1   
     9     4     7 ar  
    10     4    12 1   
    11     5     6 ar  
    12     5    13 1   
    13     6     7 ar  
    14     6    14 1   
@<TRIPOS>SUBSTRUCTURE
     1 3MP         1 TEMP              0 ****  ****    0 ROOT
