@<TRIPOS>MOLECULE
3MQ
   19    20     1     0     0
SMALL
No Charge or Current Charge


@<TRIPOS>ATOM
      1 C10         -3.6340     0.6050     0.2260 cc         1 3MQ      -0.236000
      2 C01          0.1240    -0.4780    -0.0100 cc         1 3MQ       0.263500
      3 C02          1.1090     0.4320     0.1900 cd         1 3MQ      -0.223000
      4 C03          2.3150    -0.2780     0.0330 cd         1 3MQ       0.275300
      5 N04          2.1180    -1.5600    -0.2460 nc         1 3MQ      -0.361300
      6 O05          0.6780    -1.7050    -0.2780 os         1 3MQ      -0.065700
      7 C06          3.7150     0.2940     0.1620 c3         1 3MQ       0.125300
      8 O07          3.9500     1.3920    -0.7430 oh         1 3MQ      -0.650000
      9 C08         -1.2880    -0.2420     0.0420 cc         1 3MQ      -0.291500
     10 S09         -2.0290     1.3180     0.3820 ss         1 3MQ       0.247000
     11 C11         -3.5570    -0.7360    -0.0670 cd         1 3MQ      -0.137000
     12 C12         -2.2260    -1.2220    -0.1720 cd         1 3MQ      -0.083000
     13 H10         -4.5080     1.2280     0.3620 h4         1 3MQ       0.154000
     14 H02          0.9970     1.4840     0.4180 ha         1 3MQ       0.161000
     15 H06          3.8530     0.6240     1.2000 h1         1 3MQ       0.042200
     16 H06A         4.4440    -0.5080    -0.0220 h1         1 3MQ       0.042200
     17 HO07         4.8750     1.6940    -0.5990 ho         1 3MQ       0.449000
     18 H11         -4.4320    -1.3660    -0.2040 ha         1 3MQ       0.139000
     19 H12         -1.9850    -2.2570    -0.3990 ha         1 3MQ       0.149000
@<TRIPOS>BOND
     1     1    10 1   
     2     1    11 2   
     3     1    13 1   
     4     2     3 2   
     5     2     6 1   
     6     2     9 1   
     7     3     4 1   
     8     3    14 1   
     9     4     5 2   
    10     4     7 1   
    11     5     6 1   
    12     7     8 1   
    13     7    15 1   
    14     7    16 1   
    15     8    17 1   
    16     9    10 1   
    17     9    12 2   
    18    11    12 1   
    19    11    18 1   
    20    12    19 1   
@<TRIPOS>SUBSTRUCTURE
     1 3MQ         1 TEMP              0 ****  ****    0 ROOT
