@<TRIPOS>MOLECULE
3MQ
   19    20     1     0     0
SMALL
bcc


@<TRIPOS>ATOM
      1 C10         -3.6120     0.5620     0.2230 cc         1 3MQ      -0.109100
      2 C01          0.1450    -0.3570     0.0300 cc         1 3MQ       0.373200
      3 C02          1.1490     0.5500     0.1430 cd         1 3MQ      -0.371600
      4 C03          2.3200    -0.2400     0.0440 cd         1 3MQ       0.340600
      5 N04          2.0290    -1.4960    -0.1260 nc         1 3MQ      -0.361300
      6 O05          0.6690    -1.5780    -0.1270 os         1 3MQ      -0.110100
      7 C06          3.7370     0.2160     0.1330 c3         1 3MQ       0.102100
      8 O07          3.8740     1.3600    -0.6720 oh         1 3MQ      -0.587800
      9 C08         -1.2920    -0.2520     0.0460 cc         1 3MQ      -0.146600
     10 S09         -2.0580     1.2520     0.3950 ss         1 3MQ      -0.042800
     11 C11         -3.5470    -0.7640    -0.0860 cd         1 3MQ      -0.155000
     12 C12         -2.2160    -1.2360    -0.1880 cd         1 3MQ      -0.101000
     13 H10         -4.4910     1.1710     0.3620 h4         1 3MQ       0.172000
     14 H02          1.0770     1.6160     0.2770 ha         1 3MQ       0.179000
     15 H06          3.9630     0.4300     1.1850 h1         1 3MQ       0.042200
     16 H06A         4.3960    -0.6030    -0.1760 h1         1 3MQ       0.042200
     17 HO07         4.7510     1.7260    -0.5210 ho         1 3MQ       0.410000
     18 H11         -4.4200    -1.3820    -0.2390 ha         1 3MQ       0.157000
     19 H12         -1.9570    -2.2570    -0.4280 ha         1 3MQ       0.167000
@<TRIPOS>BOND
     1     1    10 1   
     2     1    11 2   
     3     1    13 1   
     4     2     3 2   
     5     2     6 1   
     6     2     9 1   
     7     3     4 1   
     8     3    14 1   
     9     4     5 2   
    10     4     7 1   
    11     5     6 1   
    12     7     8 1   
    13     7    15 1   
    14     7    16 1   
    15     8    17 1   
    16     9    10 1   
    17     9    12 2   
    18    11    12 1   
    19    11    18 1   
    20    12    19 1   
@<TRIPOS>SUBSTRUCTURE
     1 3MQ         1 TEMP              0 ****  ****    0 ROOT
