@<TRIPOS>MOLECULE
3MT
   12    12     1     0     0
SMALL
abcg2


@<TRIPOS>ATOM
      1 C1           2.4210     0.2290     0.0170 c3         1 3MT       0.025900
      2 N7           0.9720     0.0400    -0.0070 na         1 3MT       0.063300
      3 C5           0.3920    -1.2020     0.0800 cc         1 3MT      -0.118000
      4 C11         -0.9540    -1.1400     0.0430 cd         1 3MT      -0.268000
      5 S10         -1.4790     0.4830    -0.0980 ss         1 3MT       0.567000
      6 C8           0.1080     1.0240    -0.1040 cc         1 3MT      -0.214300
      7 H11A         2.6480     1.2740    -0.1600 h1         1 3MT       0.097700
      8 H12          2.8020    -0.0730     0.9880 h1         1 3MT       0.097700
      9 H13          2.8670    -0.3800    -0.7630 h1         1 3MT       0.097700
     10 H5           1.0120    -2.0790     0.1650 h4         1 3MT       0.213000
     11 H11         -1.6530    -1.9580     0.0920 h4         1 3MT       0.217000
     12 H8           0.3960     2.0610    -0.1810 h5         1 3MT       0.222000
@<TRIPOS>BOND
     1     1     2 1   
     2     1     7 1   
     3     1     8 1   
     4     1     9 1   
     5     2     3 1   
     6     2     6 2   
     7     3     4 2   
     8     3    10 1   
     9     4     5 1   
    10     4    11 1   
    11     5     6 1   
    12     6    12 1   
@<TRIPOS>SUBSTRUCTURE
     1 3MT         1 TEMP              0 ****  ****    0 ROOT
