@<TRIPOS>MOLECULE
3MT
   12    12     1     0     0
SMALL
No Charge or Current Charge


@<TRIPOS>ATOM
      1 C1           2.4640     0.2300     0.0140 c3         1 3MT       0.025900
      2 N7           1.0110     0.0170    -0.0010 na         1 3MT       0.063300
      3 C5           0.4040    -1.2390     0.0530 cc         1 3MT      -0.118000
      4 C11         -0.9760    -1.1340     0.0250 cd         1 3MT      -0.268000
      5 S10         -1.5790     0.5080    -0.0660 ss         1 3MT       0.567000
      6 C8           0.0750     1.0380    -0.0640 cc         1 3MT      -0.214300
      7 H11A         2.6980     1.2500    -0.3120 h1         1 3MT       0.097700
      8 H12          2.8450     0.0790     1.0310 h1         1 3MT       0.097700
      9 H13          2.9490    -0.4820    -0.6640 h1         1 3MT       0.097700
     10 H5           1.0120    -2.1370     0.1090 h4         1 3MT       0.213000
     11 H11         -1.6990    -1.9400     0.0550 h4         1 3MT       0.217000
     12 H8           0.3280     2.0890    -0.1080 h5         1 3MT       0.222000
@<TRIPOS>BOND
     1     1     2 1   
     2     1     7 1   
     3     1     8 1   
     4     1     9 1   
     5     2     3 1   
     6     2     6 2   
     7     3     4 2   
     8     3    10 1   
     9     4     5 1   
    10     4    11 1   
    11     5     6 1   
    12     6    12 1   
@<TRIPOS>SUBSTRUCTURE
     1 3MT         1 TEMP              0 ****  ****    0 ROOT
