@<TRIPOS>MOLECULE
3MV
   35    34     1     0     0
SMALL
No Charge or Current Charge


@<TRIPOS>ATOM
      1 CAA          3.9640    -1.2780    -0.0140 c3         1 3MV      -0.087100
      2 CAF          2.7850    -0.5450    -0.6900 c3         1 3MV      -0.072400
      3 CAI          1.6380    -0.1220     0.2710 c3         1 3MV      -0.061700
      4 CAC          2.1300     0.8710     1.3580 c3         1 3MV      -0.086100
      5 CAH          0.4360     0.4590    -0.5360 c3         1 3MV      -0.072400
      6 CAK         -0.9310     0.5580     0.2270 c3         1 3MV      -0.053700
      7 CAG         -1.6210     1.9260    -0.0730 c3         1 3MV      -0.069400
      8 CAB         -2.1100     2.1200    -1.5270 c3         1 3MV      -0.089100
      9 CAJ         -1.8700    -0.6840    -0.0100 c3         1 3MV      -0.056700
     10 CAE         -1.1970    -2.0400     0.3240 c3         1 3MV      -0.088100
     11 CAD         -3.2130    -0.5800     0.7590 c3         1 3MV      -0.088100
     12 H1           4.6670    -1.6410    -0.7730 hc         1 3MV       0.031033
     13 H2           4.5140    -0.6110     0.6590 hc         1 3MV       0.031033
     14 H3           3.6070    -2.1410     0.5610 hc         1 3MV       0.031033
     15 H4           3.1670     0.3390    -1.2160 hc         1 3MV       0.035700
     16 H5           2.3750    -1.2110    -1.4590 hc         1 3MV       0.035700
     17 H6           1.3040    -1.0270     0.7910 hc         1 3MV       0.045700
     18 H7           2.5570     1.7700     0.8970 hc         1 3MV       0.031033
     19 H8           1.3150     1.1850     2.0180 hc         1 3MV       0.031033
     20 H9           2.8980     0.4140     1.9920 hc         1 3MV       0.031033
     21 H10          0.7380     1.4530    -0.8910 hc         1 3MV       0.039200
     22 H11          0.2810    -0.1310    -1.4470 hc         1 3MV       0.039200
     23 H12         -0.7140     0.5730     1.3010 hc         1 3MV       0.044700
     24 H13         -2.4650     2.0770     0.6090 hc         1 3MV       0.036700
     25 H14         -0.9170     2.7340     0.1640 hc         1 3MV       0.036700
     26 H15         -2.5180     3.1300    -1.6560 hc         1 3MV       0.030700
     27 H16         -1.2890     1.9940    -2.2430 hc         1 3MV       0.030700
     28 H17         -2.9020     1.4060    -1.7780 hc         1 3MV       0.030700
     29 H18         -2.1160    -0.7210    -1.0780 hc         1 3MV       0.044700
     30 H19         -0.8480    -2.0580     1.3630 hc         1 3MV       0.031533
     31 H20         -1.9030    -2.8680     0.1890 hc         1 3MV       0.031533
     32 H21         -0.3460    -2.2360    -0.3380 hc         1 3MV       0.031533
     33 H22         -3.8210     0.2550     0.3940 hc         1 3MV       0.031533
     34 H23         -3.8100    -1.4910     0.6240 hc         1 3MV       0.031533
     35 H24         -3.0390    -0.4430     1.8330 hc         1 3MV       0.031533
@<TRIPOS>BOND
     1     1     2 1   
     2     1    12 1   
     3     1    13 1   
     4     1    14 1   
     5     2     3 1   
     6     2    15 1   
     7     2    16 1   
     8     3     4 1   
     9     3     5 1   
    10     3    17 1   
    11     4    18 1   
    12     4    19 1   
    13     4    20 1   
    14     5     6 1   
    15     5    21 1   
    16     5    22 1   
    17     6     7 1   
    18     6     9 1   
    19     6    23 1   
    20     7     8 1   
    21     7    24 1   
    22     7    25 1   
    23     8    26 1   
    24     8    27 1   
    25     8    28 1   
    26     9    10 1   
    27     9    11 1   
    28     9    29 1   
    29    10    30 1   
    30    10    31 1   
    31    10    32 1   
    32    11    33 1   
    33    11    34 1   
    34    11    35 1   
@<TRIPOS>SUBSTRUCTURE
     1 3MV         1 TEMP              0 ****  ****    0 ROOT
