@<TRIPOS>MOLECULE
3MV
   35    34     1     0     0
SMALL
abcg2


@<TRIPOS>ATOM
      1 CAA          4.0240    -1.0750     0.0300 c3         1 3MV      -0.087100
      2 CAF          2.7650    -0.5890    -0.6730 c3         1 3MV      -0.072400
      3 CAI          1.6270    -0.1650     0.2580 c3         1 3MV      -0.061700
      4 CAC          2.0560     0.9500     1.2080 c3         1 3MV      -0.086100
      5 CAH          0.4100     0.2630    -0.5700 c3         1 3MV      -0.072400
      6 CAK         -0.8980     0.4250     0.2330 c3         1 3MV      -0.053700
      7 CAG         -1.4810     1.8330     0.0570 c3         1 3MV      -0.069400
      8 CAB         -2.0060     2.1410    -1.3390 c3         1 3MV      -0.089100
      9 CAJ         -1.9070    -0.6970    -0.0750 c3         1 3MV      -0.056700
     10 CAE         -1.3410    -2.0710     0.2790 c3         1 3MV      -0.088100
     11 CAD         -3.2340    -0.4960     0.6540 c3         1 3MV      -0.088100
     12 H1           4.7400    -1.4780    -0.6870 hc         1 3MV       0.031033
     13 H2           4.5270    -0.2740     0.5730 hc         1 3MV       0.031033
     14 H3           3.7970    -1.8670     0.7470 hc         1 3MV       0.031033
     15 H4           3.0140     0.2490    -1.3340 hc         1 3MV       0.035700
     16 H5           2.3930    -1.3850    -1.3250 hc         1 3MV       0.035700
     17 H6           1.3440    -1.0380     0.8590 hc         1 3MV       0.045700
     18 H7           2.4310     1.8100     0.6470 hc         1 3MV       0.031033
     19 H8           1.2220     1.2960     1.8220 hc         1 3MV       0.031033
     20 H9           2.8440     0.6280     1.8900 hc         1 3MV       0.031033
     21 H10          0.6650     1.2070    -1.0640 hc         1 3MV       0.039200
     22 H11          0.2660    -0.4570    -1.3820 hc         1 3MV       0.039200
     23 H12         -0.6570     0.3290     1.3010 hc         1 3MV       0.044700
     24 H13         -2.2730     2.0060     0.7900 hc         1 3MV       0.036700
     25 H14         -0.6930     2.5500     0.3060 hc         1 3MV       0.036700
     26 H15         -2.3430     3.1760    -1.4080 hc         1 3MV       0.030700
     27 H16         -1.2380     1.9980    -2.1000 hc         1 3MV       0.030700
     28 H17         -2.8530     1.5070    -1.6070 hc         1 3MV       0.030700
     29 H18         -2.1090    -0.6880    -1.1530 hc         1 3MV       0.044700
     30 H19         -1.1180    -2.1390     1.3470 hc         1 3MV       0.031533
     31 H20         -2.0620    -2.8570     0.0440 hc         1 3MV       0.031533
     32 H21         -0.4240    -2.3020    -0.2650 hc         1 3MV       0.031533
     33 H22         -3.7590     0.4010     0.3230 hc         1 3MV       0.031533
     34 H23         -3.9020    -1.3430     0.4850 hc         1 3MV       0.031533
     35 H24         -3.0810    -0.4110     1.7330 hc         1 3MV       0.031533
@<TRIPOS>BOND
     1     1     2 1   
     2     1    12 1   
     3     1    13 1   
     4     1    14 1   
     5     2     3 1   
     6     2    15 1   
     7     2    16 1   
     8     3     4 1   
     9     3     5 1   
    10     3    17 1   
    11     4    18 1   
    12     4    19 1   
    13     4    20 1   
    14     5     6 1   
    15     5    21 1   
    16     5    22 1   
    17     6     7 1   
    18     6     9 1   
    19     6    23 1   
    20     7     8 1   
    21     7    24 1   
    22     7    25 1   
    23     8    26 1   
    24     8    27 1   
    25     8    28 1   
    26     9    10 1   
    27     9    11 1   
    28     9    29 1   
    29    10    30 1   
    30    10    31 1   
    31    10    32 1   
    32    11    33 1   
    33    11    34 1   
    34    11    35 1   
@<TRIPOS>SUBSTRUCTURE
     1 3MV         1 TEMP              0 ****  ****    0 ROOT
