@<TRIPOS>MOLECULE
3MW
   43    45     1     0     0
SMALL
bcc


@<TRIPOS>ATOM
      1 C10          7.0130    -1.7930    -0.0150 cc         1 3MW      -0.307300
      2 C21         -4.8840     0.1430     0.0740 ca         1 3MW      -0.037500
      3 C22         -5.9090    -0.7550     0.2870 ca         1 3MW      -0.220000
      4 C24         -4.3960    -2.5690    -0.1730 ca         1 3MW      -0.220000
      5 C23         -5.6870    -2.1360     0.1670 ca         1 3MW       0.197600
      6 N26         -6.7070    -3.0280     0.3260 nv         1 3MW      -0.840200
      7 C25         -3.3770    -1.6600    -0.3720 ca         1 3MW      -0.037500
      8 C19         -3.5940    -0.2860    -0.2470 ca         1 3MW      -0.205600
      9 O20         -2.8070     1.9100    -0.6770 o          1 3MW      -0.612100
     10 N13         -1.2590     0.3230    -0.3870 ns         1 3MW      -0.565900
     11 C12         -0.1820     1.2430    -0.6390 c3         1 3MW       0.095000
     12 C14         -0.2710     2.4390     0.3190 c          1 3MW       0.669100
     13 O15         -0.4850     2.3090     1.5050 o          1 3MW      -0.553100
     14 N16          0.0290     3.6040    -0.2830 ns         1 3MW      -0.433400
     15 O17         -0.1140     4.7650     0.4190 oh         1 3MW      -0.389100
     16 C03          1.1540     0.5700    -0.4400 ca         1 3MW      -0.118300
     17 C04          1.4410    -0.1390     0.7240 ca         1 3MW      -0.095000
     18 C05          2.6730    -0.7410     0.9040 ca         1 3MW      -0.136500
     19 C02          2.1340     0.6650    -1.4200 ca         1 3MW      -0.095000
     20 C01          3.3700     0.0630    -1.2540 ca         1 3MW      -0.136500
     21 C06          3.6440    -0.6400    -0.0870 ca         1 3MW       0.034800
     22 N07          4.8970    -1.2520     0.0930 na         1 3MW       0.169300
     23 N08          5.0310    -2.2800     0.9360 nd         1 3MW      -0.516800
     24 C09          6.3010    -2.6160     0.8780 cc         1 3MW       0.313200
     25 C11          6.0710    -0.9250    -0.4990 cd         1 3MW      -0.126300
     26 H1           8.0610    -1.8260    -0.2610 ha         1 3MW       0.167000
     27 H3          -6.8950    -0.3920     0.5490 ha         1 3MW       0.133500
     28 H4          -4.1980    -3.6280    -0.2860 ha         1 3MW       0.133500
     29 H5          -7.5210    -2.7200     0.8310 hn         1 3MW       0.408800
     30 H6          -6.4620    -3.9880     0.5040 hn         1 3MW       0.408800
     31 H7          -2.4060    -2.0490    -0.6540 ha         1 3MW       0.138500
     32 H8          -1.0300    -0.6270    -0.1440 hn         1 3MW       0.329500
     33 H9          -0.2330     1.5990    -1.6730 h1         1 3MW       0.063700
     34 H10         -0.0700     3.7150    -1.2830 hn         1 3MW       0.330500
     35 H11          0.7810     5.0500     0.6440 ho         1 3MW       0.406000
     36 H12          0.7040    -0.2200     1.5130 ha         1 3MW       0.146000
     37 H13          2.8820    -1.2830     1.8150 ha         1 3MW       0.153500
     38 H14          1.9300     1.2000    -2.3390 ha         1 3MW       0.146000
     39 H15          4.1000     0.1290    -2.0500 ha         1 3MW       0.153500
     40 H16          6.6730    -3.4380     1.4720 h4         1 3MW       0.040100
     41 H17          6.1580    -0.1040    -1.1910 h4         1 3MW       0.174000
     42 C18         -2.5420     0.7330    -0.4560 c          1 3MW       0.694700
     43 H2          -5.0860     1.2010     0.1730 ha         1 3MW       0.138500
@<TRIPOS>BOND
     1     1    24 1   
     2     1    25 2   
     3     1    26 1   
     4     2     3 ar  
     5     2     8 ar  
     6     2    43 1   
     7     3     5 ar  
     8     3    27 1   
     9     4     5 ar  
    10     4     7 ar  
    11     4    28 1   
    12     5     6 1   
    13     6    29 1   
    14     6    30 1   
    15     7     8 ar  
    16     7    31 1   
    17     8    42 1   
    18     9    42 2   
    19    10    11 1   
    20    10    32 1   
    21    10    42 1   
    22    11    12 1   
    23    11    16 1   
    24    11    33 1   
    25    12    13 2   
    26    12    14 1   
    27    14    15 1   
    28    14    34 1   
    29    15    35 1   
    30    16    17 ar  
    31    16    19 ar  
    32    17    18 ar  
    33    17    36 1   
    34    18    21 ar  
    35    18    37 1   
    36    19    20 ar  
    37    19    38 1   
    38    20    21 ar  
    39    20    39 1   
    40    21    22 1   
    41    22    23 1   
    42    22    25 1   
    43    23    24 2   
    44    24    40 1   
    45    25    41 1   
@<TRIPOS>SUBSTRUCTURE
     1 3MW         1 TEMP              0 ****  ****    0 ROOT
