@<TRIPOS>MOLECULE
3MW
   43    45     1     0     0
SMALL
No Charge or Current Charge


@<TRIPOS>ATOM
      1 C10          6.8670    -1.6570    -0.2880 cc         1 3MW      -0.224000
      2 C21         -4.9980    -0.1940    -0.8320 ca         1 3MW      -0.019500
      3 C22         -5.9720    -1.1660    -0.5460 ca         1 3MW      -0.202000
      4 C24         -4.3280    -2.4720     0.6550 ca         1 3MW      -0.202000
      5 C23         -5.6370    -2.3020     0.1960 ca         1 3MW       0.336000
      6 N26         -6.5870    -3.2440     0.4710 nv         1 3MW      -1.089000
      7 C25         -3.3440    -1.5060     0.3760 ca         1 3MW      -0.019500
      8 C19         -3.6700    -0.3490    -0.3740 ca         1 3MW      -0.205600
      9 O20         -2.9280     1.7120    -1.3540 o          1 3MW      -0.612100
     10 N13         -1.3700     0.5180    -0.2260 ns         1 3MW      -0.498900
     11 C12         -0.2450     1.4490    -0.4420 c3         1 3MW       0.095000
     12 C14         -0.2880     2.6570     0.5470 c          1 3MW       0.602100
     13 O15         -1.0510     2.7220     1.5070 o          1 3MW      -0.553100
     14 N16          0.6470     3.6560     0.2820 ns         1 3MW      -0.366400
     15 O17          0.5770     4.9430     0.9440 oh         1 3MW      -0.428100
     16 C03          1.0790     0.6920    -0.3530 ca         1 3MW      -0.118300
     17 C04          1.5340     0.1860     0.8820 ca         1 3MW      -0.077000
     18 C05          2.7510    -0.5120     0.9580 ca         1 3MW      -0.118500
     19 C02          1.8530     0.4820    -1.5110 ca         1 3MW      -0.077000
     20 C01          3.0710    -0.2170    -1.4330 ca         1 3MW      -0.118500
     21 C06          3.5300    -0.7150    -0.1970 ca         1 3MW       0.034800
     22 N07          4.7380    -1.4110    -0.1150 na         1 3MW       0.220000
     23 N08          4.9390    -2.6790     0.4040 nd         1 3MW      -0.516800
     24 C09          6.2470    -2.7920     0.2710 cc         1 3MW       0.247900
     25 C11          5.8870    -0.7410    -0.5360 cd         1 3MW      -0.159000
     26 H1           7.9320    -1.5520    -0.4700 ha         1 3MW       0.149000
     27 H3          -6.9880    -1.0290    -0.9070 ha         1 3MW       0.115500
     28 H4          -4.0630    -3.3550     1.2310 ha         1 3MW       0.115500
     29 H5          -7.5660    -3.0350     0.2870 hn         1 3MW       0.464000
     30 H6          -6.3870    -3.9760     1.1510 hn         1 3MW       0.464000
     31 H7          -2.3380    -1.6760     0.7500 ha         1 3MW       0.120500
     32 H8          -1.2020    -0.3230     0.3080 hn         1 3MW       0.329500
     33 H9          -0.3380     1.8710    -1.4510 h1         1 3MW       0.063700
     34 H10          1.1790     3.6260    -0.5870 hn         1 3MW       0.330500
     35 H11          1.4950     5.0840     1.2770 ho         1 3MW       0.445000
     36 H12          0.9460     0.3330     1.7870 ha         1 3MW       0.128000
     37 H13          3.0920    -0.8970     1.9170 ha         1 3MW       0.135500
     38 H14          1.5130     0.8560    -2.4740 ha         1 3MW       0.128000
     39 H15          3.6560    -0.3760    -2.3360 ha         1 3MW       0.135500
     40 H16          6.7270    -3.7070     0.5930 h4         1 3MW       0.040100
     41 H17          5.9030     0.2620    -0.9460 h4         1 3MW       0.156000
     42 C18         -2.6460     0.7170    -0.7000 c          1 3MW       0.627700
     43 H2          -5.2820     0.6830    -1.4110 ha         1 3MW       0.120500
@<TRIPOS>BOND
     1     1    24 1   
     2     1    25 2   
     3     1    26 1   
     4     2     3 ar  
     5     2     8 ar  
     6     2    43 1   
     7     3     5 ar  
     8     3    27 1   
     9     4     5 ar  
    10     4     7 ar  
    11     4    28 1   
    12     5     6 1   
    13     6    29 1   
    14     6    30 1   
    15     7     8 ar  
    16     7    31 1   
    17     8    42 1   
    18     9    42 2   
    19    10    11 1   
    20    10    32 1   
    21    10    42 1   
    22    11    12 1   
    23    11    16 1   
    24    11    33 1   
    25    12    13 2   
    26    12    14 1   
    27    14    15 1   
    28    14    34 1   
    29    15    35 1   
    30    16    17 ar  
    31    16    19 ar  
    32    17    18 ar  
    33    17    36 1   
    34    18    21 ar  
    35    18    37 1   
    36    19    20 ar  
    37    19    38 1   
    38    20    21 ar  
    39    20    39 1   
    40    21    22 1   
    41    22    23 1   
    42    22    25 1   
    43    23    24 2   
    44    24    40 1   
    45    25    41 1   
@<TRIPOS>SUBSTRUCTURE
     1 3MW         1 TEMP              0 ****  ****    0 ROOT
