@<TRIPOS>MOLECULE
3MX
   44    44     1     0     0
SMALL
abcg2


@<TRIPOS>ATOM
      1 C1           1.4100    -1.1130    -0.0090 c          1 3MX       0.583700
      2 C3           2.7810    -0.5380    -0.0790 ca         1 3MX      -0.136600
      3 C4           3.8680    -1.4090    -0.0530 ca         1 3MX      -0.129500
      4 C5           5.1610    -0.9180    -0.1140 ca         1 3MX       0.105100
      5 C6           5.3800     0.4580    -0.2020 ca         1 3MX       0.042100
      6 C7           4.2910     1.3300    -0.2300 ca         1 3MX       0.105100
      7 C8           2.9980     0.8370    -0.1680 ca         1 3MX      -0.129500
      8 O9           6.1900    -1.7880    -0.0860 oh         1 3MX      -0.542100
      9 O10          6.6590     0.8790    -0.2590 oh         1 3MX      -0.553100
     10 O11          4.5990     2.6420    -0.3180 oh         1 3MX      -0.542100
     11 O12          1.2530    -2.3140     0.0740 o          1 3MX      -0.518100
     12 C13          0.2290    -0.1730    -0.0440 c3         1 3MX      -0.173400
     13 C14         -1.1210    -0.8690     0.0240 c3         1 3MX      -0.068400
     14 C15         -2.2810     0.1190    -0.0000 c3         1 3MX      -0.075400
     15 C16         -3.6380    -0.5730     0.0310 c3         1 3MX      -0.075400
     16 C17         -4.8150     0.3950     0.0150 c3         1 3MX      -0.073400
     17 C18         -6.1660    -0.3100     0.0190 c3         1 3MX      -0.075400
     18 C19         -7.3490     0.6490     0.0060 c3         1 3MX      -0.075400
     19 C20         -8.6980    -0.0590    -0.0020 c3         1 3MX      -0.075400
     20 C21         -9.8740     0.9090    -0.0150 c3         1 3MX      -0.088100
     21 H1           3.7140    -2.4780     0.0170 ha         1 3MX       0.136000
     22 H2           2.1730     1.5370    -0.1900 ha         1 3MX       0.136000
     23 H3           7.0350    -1.3230    -0.1170 ho         1 3MX       0.481500
     24 H4           6.7100     1.8430    -0.2830 ho         1 3MX       0.494000
     25 H5           3.8040     3.1870    -0.3080 ho         1 3MX       0.481500
     26 H6           0.3300     0.5410     0.7820 hc         1 3MX       0.059700
     27 H7           0.2940     0.4340    -0.9540 hc         1 3MX       0.059700
     28 H8          -1.2220    -1.5620    -0.8160 hc         1 3MX       0.054200
     29 H9          -1.1830    -1.4760     0.9310 hc         1 3MX       0.054200
     30 H10         -2.1990     0.8020     0.8520 hc         1 3MX       0.034700
     31 H11         -2.2130     0.7450    -0.8980 hc         1 3MX       0.034700
     32 H12         -3.7170    -1.2510    -0.8260 hc         1 3MX       0.040200
     33 H13         -3.7020    -1.2060     0.9230 hc         1 3MX       0.040200
     34 H14         -4.7480     1.0630     0.8800 hc         1 3MX       0.036200
     35 H15         -4.7440     1.0380    -0.8700 hc         1 3MX       0.036200
     36 H16         -6.2300    -0.9750    -0.8490 hc         1 3MX       0.037700
     37 H17         -7.2910     1.3100     0.8790 hc         1 3MX       0.036700
     38 H18         -8.7550    -0.7190    -0.8730 hc         1 3MX       0.036700
     39 H19         -8.7690    -0.7110     0.8750 hc         1 3MX       0.036700
     40 H20         -9.8590     1.5570     0.8630 hc         1 3MX       0.031367
     41 H21         -9.8440     1.5500    -0.8980 hc         1 3MX       0.031367
     42 H22        -10.8290     0.3830    -0.0210 hc         1 3MX       0.031367
     43 H23         -6.2340    -0.9580     0.9010 hc         1 3MX       0.037700
     44 H24         -7.2780     1.3030    -0.8710 hc         1 3MX       0.036700
@<TRIPOS>BOND
     1     1     2 1   
     2     1    11 2   
     3     1    12 1   
     4     2     3 ar  
     5     2     7 ar  
     6     3     4 ar  
     7     3    21 1   
     8     4     5 ar  
     9     4     8 1   
    10     5     6 ar  
    11     5     9 1   
    12     6     7 ar  
    13     6    10 1   
    14     7    22 1   
    15     8    23 1   
    16     9    24 1   
    17    10    25 1   
    18    12    13 1   
    19    12    26 1   
    20    12    27 1   
    21    13    14 1   
    22    13    28 1   
    23    13    29 1   
    24    14    15 1   
    25    14    30 1   
    26    14    31 1   
    27    15    16 1   
    28    15    32 1   
    29    15    33 1   
    30    16    17 1   
    31    16    34 1   
    32    16    35 1   
    33    17    18 1   
    34    17    36 1   
    35    17    43 1   
    36    18    19 1   
    37    18    37 1   
    38    18    44 1   
    39    19    20 1   
    40    19    38 1   
    41    19    39 1   
    42    20    40 1   
    43    20    41 1   
    44    20    42 1   
@<TRIPOS>SUBSTRUCTURE
     1 3MX         1 TEMP              0 ****  ****    0 ROOT
