@<TRIPOS>MOLECULE
3MX
   44    44     1     0     0
SMALL
No Charge or Current Charge


@<TRIPOS>ATOM
      1 C1           1.4800    -1.1850    -0.0320 c          1 3MX       0.583700
      2 C3           2.8770    -0.5820    -0.0810 ca         1 3MX      -0.136600
      3 C4           4.0080    -1.4350    -0.0540 ca         1 3MX      -0.129500
      4 C5           5.3080    -0.9080    -0.0980 ca         1 3MX       0.105100
      5 C6           5.5080     0.4820    -0.1690 ca         1 3MX       0.042100
      6 C7           4.3970     1.3450    -0.1970 ca         1 3MX       0.105100
      7 C8           3.0920     0.8190    -0.1530 ca         1 3MX      -0.129500
      8 O9           6.3880    -1.7420    -0.0710 oh         1 3MX      -0.542100
      9 O10          6.7780     1.0000    -0.2120 oh         1 3MX      -0.553100
     10 O11          4.5970     2.6990    -0.2670 oh         1 3MX      -0.542100
     11 O12          1.3310    -2.4010     0.0300 o          1 3MX      -0.518100
     12 C13          0.2520    -0.2520    -0.0620 c3         1 3MX      -0.173400
     13 C14         -1.1320    -0.9470    -0.0090 c3         1 3MX      -0.068400
     14 C15         -2.3070     0.0550    -0.0430 c3         1 3MX      -0.075400
     15 C16         -3.6890    -0.6310     0.0090 c3         1 3MX      -0.075400
     16 C17         -4.8630     0.3710    -0.0240 c3         1 3MX      -0.073400
     17 C18         -6.2460    -0.3160     0.0280 c3         1 3MX      -0.075400
     18 C19         -7.4200     0.6870    -0.0050 c3         1 3MX      -0.075400
     19 C20         -8.8020     0.0010     0.0460 c3         1 3MX      -0.075400
     20 C21         -9.9740     1.0010     0.0130 c3         1 3MX      -0.088100
     21 H1           3.8830    -2.5140     0.0010 ha         1 3MX       0.136000
     22 H2           2.2520     1.5080    -0.1760 ha         1 3MX       0.136000
     23 H3           7.1810    -1.1620    -0.1110 ho         1 3MX       0.481500
     24 H4           6.6790     1.9800    -0.2590 ho         1 3MX       0.494000
     25 H5           3.7250     3.1520    -0.2770 ho         1 3MX       0.481500
     26 H6           0.3670     0.4750     0.7500 hc         1 3MX       0.059700
     27 H7           0.3440     0.3920    -0.9440 hc         1 3MX       0.059700
     28 H8          -1.2230    -1.6370    -0.8580 hc         1 3MX       0.054200
     29 H9          -1.2000    -1.5500     0.9050 hc         1 3MX       0.054200
     30 H10         -2.2150     0.7460     0.8050 hc         1 3MX       0.034700
     31 H11         -2.2390     0.6590    -0.9560 hc         1 3MX       0.034700
     32 H12         -3.7800    -1.3220    -0.8390 hc         1 3MX       0.040200
     33 H13         -3.7570    -1.2360     0.9230 hc         1 3MX       0.040200
     34 H14         -4.7720     1.0610     0.8240 hc         1 3MX       0.036200
     35 H15         -4.7950     0.9750    -0.9370 hc         1 3MX       0.036200
     36 H16         -6.3370    -1.0060    -0.8200 hc         1 3MX       0.037700
     37 H17         -7.3290     1.3770     0.8430 hc         1 3MX       0.036700
     38 H18         -8.8980    -0.6890    -0.8020 hc         1 3MX       0.036700
     39 H19         -8.8750    -0.6030     0.9600 hc         1 3MX       0.036700
     40 H20         -9.9260     1.6830     0.8700 hc         1 3MX       0.031367
     41 H21         -9.9500     1.5970    -0.9070 hc         1 3MX       0.031367
     42 H22        -10.9320     0.4680     0.0520 hc         1 3MX       0.031367
     43 H23         -6.3140    -0.9200     0.9410 hc         1 3MX       0.037700
     44 H24         -7.3520     1.2910    -0.9190 hc         1 3MX       0.036700
@<TRIPOS>BOND
     1     1     2 1   
     2     1    11 2   
     3     1    12 1   
     4     2     3 ar  
     5     2     7 ar  
     6     3     4 ar  
     7     3    21 1   
     8     4     5 ar  
     9     4     8 1   
    10     5     6 ar  
    11     5     9 1   
    12     6     7 ar  
    13     6    10 1   
    14     7    22 1   
    15     8    23 1   
    16     9    24 1   
    17    10    25 1   
    18    12    13 1   
    19    12    26 1   
    20    12    27 1   
    21    13    14 1   
    22    13    28 1   
    23    13    29 1   
    24    14    15 1   
    25    14    30 1   
    26    14    31 1   
    27    15    16 1   
    28    15    32 1   
    29    15    33 1   
    30    16    17 1   
    31    16    34 1   
    32    16    35 1   
    33    17    18 1   
    34    17    36 1   
    35    17    43 1   
    36    18    19 1   
    37    18    37 1   
    38    18    44 1   
    39    19    20 1   
    40    19    38 1   
    41    19    39 1   
    42    20    40 1   
    43    20    41 1   
    44    20    42 1   
@<TRIPOS>SUBSTRUCTURE
     1 3MX         1 TEMP              0 ****  ****    0 ROOT
