@<TRIPOS>MOLECULE
3MY
   23    23     1     0     0
SMALL
abcg2


@<TRIPOS>ATOM
      1 OBD         15.1860    21.4460    39.1500 oh         1 3MY      -0.548100
      2 CZ          15.8280    21.7810    38.0190 ca         1 3MY       0.122100
      3 CE2         17.1590    22.1940    37.9730 ca         1 3MY       0.029000
      4 CD2         17.7770    22.5270    36.7800 ca         1 3MY      -0.035000
      5 CL          18.0530    22.2960    39.4620 cl         1 3MY      -0.240000
      6 CE1         15.1320    21.7140    36.8160 ca         1 3MY      -0.159000
      7 CD1         15.7490    22.0540    35.6230 ca         1 3MY      -0.076000
      8 CG          17.0790    22.4640    35.5780 ca         1 3MY      -0.070300
      9 CB          17.7280    22.8700    34.2840 c3         1 3MY      -0.005100
     10 CA          17.7450    24.3930    34.0690 c3         1 3MY       0.013500
     11 C           18.6920    25.0800    35.0910 c          1 3MY       0.690000
     12 O           19.8790    24.6890    35.0720 o          1 3MY      -0.732000
     13 N           16.3820    24.8980    34.0230 n8         1 3MY      -1.001200
     14 OXT         18.2050    25.9500    35.8370 o          1 3MY      -0.732000
     15 HBD         15.7670    21.5320    39.9170 ho         1 3MY       0.467000
     16 HE1         14.0980    21.3930    36.8260 ha         1 3MY       0.112000
     17 HD2         18.8140    22.8370    36.7880 ha         1 3MY       0.163000
     18 HD1         15.1800    21.9910    34.7040 ha         1 3MY       0.114000
     19 HB1C        18.7530    22.5020    34.2430 hc         1 3MY       0.040200
     20 HB2C        17.1890    22.4080    33.4540 hc         1 3MY       0.040200
     21 HA          18.1820    24.5540    33.0760 h1         1 3MY       0.039700
     22 HN1         16.0150    24.9040    34.9680 hn         1 3MY       0.385000
     23 HN2         16.4100    25.8760    33.7630 hn         1 3MY       0.385000
@<TRIPOS>BOND
     1     1     2 1   
     2     1    15 1   
     3     2     3 ar  
     4     2     6 ar  
     5     3     4 ar  
     6     3     5 1   
     7     4     8 ar  
     8     4    17 1   
     9     6     7 ar  
    10     6    16 1   
    11     7     8 ar  
    12     7    18 1   
    13     8     9 1   
    14     9    10 1   
    15     9    19 1   
    16     9    20 1   
    17    10    11 1   
    18    10    13 1   
    19    10    21 1   
    20    11    12 1   
    21    11    14 1   
    22    13    22 1   
    23    13    23 1   
@<TRIPOS>SUBSTRUCTURE
     1 3MY         1 TEMP              0 ****  ****    0 ROOT
