@<TRIPOS>MOLECULE
3MY
   23    23     1     0     0
SMALL
No Charge or Current Charge


@<TRIPOS>ATOM
      1 OBD         15.1670    21.4020    39.2110 oh         1 3MY      -0.548100
      2 CZ          15.7940    21.7530    38.0490 ca         1 3MY       0.122100
      3 CE2         17.1600    22.1020    38.0470 ca         1 3MY       0.029000
      4 CD2         17.7920    22.4610    36.8430 ca         1 3MY      -0.035000
      5 Cl          18.0900    22.0910    39.5460 cl         1 3MY      -0.240000
      6 CE1         15.0690    21.7640    36.8470 ca         1 3MY      -0.159000
      7 CD1         15.7020    22.1230    35.6440 ca         1 3MY      -0.076000
      8 CG          17.0670    22.4770    35.6340 ca         1 3MY      -0.070300
      9 CB          17.7580    22.8570    34.3250 c3         1 3MY      -0.005100
     10 CA          17.7660    24.3810    34.0260 c3         1 3MY       0.013500
     11 C           18.7080    25.1480    35.0450 c          1 3MY       0.690000
     12 O           19.9150    25.1160    34.8500 o          1 3MY      -0.732000
     13 N           16.3600    24.9110    33.8640 n8         1 3MY      -1.001200
     14 OXT         18.1940    25.8260    35.9260 o          1 3MY      -0.732000
     15 HBD         15.8300    21.4530    39.9340 ho         1 3MY       0.467000
     16 HE1         14.0160    21.4930    36.8460 ha         1 3MY       0.112000
     17 HD2         18.8470    22.7260    36.8520 ha         1 3MY       0.163000
     18 HD1         15.1320    22.1270    34.7170 ha         1 3MY       0.114000
     19 HB1C        18.7940    22.4940    34.3330 hc         1 3MY       0.040200
     20 HB2C        17.2760    22.3370    33.4880 hc         1 3MY       0.040200
     21 HA          18.2460    24.5030    33.0460 h1         1 3MY       0.039700
     22 HN1         15.9100    24.8940    34.7870 hn         1 3MY       0.385000
     23 HN2         16.4090    25.9150    33.6540 hn         1 3MY       0.385000
@<TRIPOS>BOND
     1     1     2 1   
     2     1    15 1   
     3     2     3 ar  
     4     2     6 ar  
     5     3     4 ar  
     6     3     5 1   
     7     4     8 ar  
     8     4    17 1   
     9     6     7 ar  
    10     6    16 1   
    11     7     8 ar  
    12     7    18 1   
    13     8     9 1   
    14     9    10 1   
    15     9    19 1   
    16     9    20 1   
    17    10    11 1   
    18    10    13 1   
    19    10    21 1   
    20    11    12 1   
    21    11    14 1   
    22    13    22 1   
    23    13    23 1   
@<TRIPOS>SUBSTRUCTURE
     1 3MY         1 TEMP              0 ****  ****    0 ROOT
