@<TRIPOS>MOLECULE
3MZ
   41    41     1     0     0
SMALL
abcg2


@<TRIPOS>ATOM
      1 C4          -3.7120    -1.9010     0.0830 ca         1 3MZ      -0.222000
      2 C13          2.7740    -0.3820     0.0900 c3         1 3MZ      -0.076400
      3 C15          5.3110    -0.5820     0.0250 c3         1 3MZ      -0.074400
      4 C17          7.8500    -0.7700    -0.0540 c3         1 3MZ      -0.074400
      5 C2          -2.2910     0.0570     0.1430 ca         1 3MZ      -0.303600
      6 C11          0.2620    -0.1950     0.1380 c3         1 3MZ      -0.167400
      7 C12          1.5790     0.5640     0.1090 c3         1 3MZ      -0.067400
      8 C16          6.6410     0.1580    -0.0450 c3         1 3MZ      -0.076400
      9 C18          9.1700    -0.0150    -0.1340 c3         1 3MZ      -0.089100
     10 C1          -0.9650     0.6790     0.1630 c          1 3MZ       0.607700
     11 C3          -2.4600    -1.3340     0.1030 ca         1 3MZ      -0.020000
     12 C5          -4.8430    -1.0800     0.1010 ca         1 3MZ       0.111100
     13 C6          -4.7130     0.3040     0.1410 ca         1 3MZ       0.046100
     14 C7          -3.4400     0.8770     0.1630 ca         1 3MZ       0.225100
     15 O8          -3.3810     2.2070     0.2030 oh         1 3MZ      -0.520100
     16 O9          -5.7750     1.1400     0.1600 oh         1 3MZ      -0.512100
     17 O10         -6.1000    -1.5520     0.0820 oh         1 3MZ      -0.548100
     18 C14          4.1070     0.3530     0.0390 c3         1 3MZ      -0.074400
     19 O19         -0.8500     1.9030     0.2030 o          1 3MZ      -0.572100
     20 H1          -3.8260    -2.9780     0.0520 ha         1 3MZ       0.119000
     21 H2           2.7460    -1.0250     0.9770 hc         1 3MZ       0.035700
     22 H3           2.6960    -1.0530    -0.7730 hc         1 3MZ       0.035700
     23 H4           5.2300    -1.2650    -0.8280 hc         1 3MZ       0.036700
     24 H5           5.2910    -1.2120     0.9210 hc         1 3MZ       0.036700
     25 H6           7.8360    -1.3920     0.8470 hc         1 3MZ       0.036200
     26 H7           7.7690    -1.4600    -0.8990 hc         1 3MZ       0.036200
     27 H8           0.1950    -0.8610    -0.7290 hc         1 3MZ       0.064200
     28 H9           0.2280    -0.8570     1.0110 hc         1 3MZ       0.064200
     29 H10          1.6530     1.2210     0.9800 hc         1 3MZ       0.054200
     30 H11          1.6170     1.2120    -0.7710 hc         1 3MZ       0.054200
     31 H12          6.6610     0.7850    -0.9430 hc         1 3MZ       0.037700
     32 H13          6.7210     0.8450     0.8050 hc         1 3MZ       0.037700
     33 H14          9.2240     0.5850    -1.0450 hc         1 3MZ       0.031367
     34 H15          9.2870     0.6640     0.7130 hc         1 3MZ       0.031367
     35 H16         10.0240    -0.6930    -0.1340 hc         1 3MZ       0.031367
     36 H17         -1.6000    -1.9870     0.0890 ha         1 3MZ       0.116000
     37 H18         -2.4240     2.4470     0.2170 ho         1 3MZ       0.513000
     38 H19         -6.5970     0.6360     0.1590 ho         1 3MZ       0.474000
     39 H20         -6.1120    -2.5160     0.0650 ho         1 3MZ       0.480000
     40 H21          4.1350     0.9910    -0.8520 hc         1 3MZ       0.040200
     41 H22          4.1840     1.0290     0.8980 hc         1 3MZ       0.040200
@<TRIPOS>BOND
     1     1    11 ar  
     2     1    12 ar  
     3     1    20 1   
     4     2     7 1   
     5     2    18 1   
     6     2    21 1   
     7     2    22 1   
     8     3     8 1   
     9     3    18 1   
    10     3    23 1   
    11     3    24 1   
    12     4     8 1   
    13     4     9 1   
    14     4    25 1   
    15     4    26 1   
    16     5    10 1   
    17     5    11 ar  
    18     5    14 ar  
    19     6     7 1   
    20     6    10 1   
    21     6    27 1   
    22     6    28 1   
    23     7    29 1   
    24     7    30 1   
    25     8    31 1   
    26     8    32 1   
    27     9    33 1   
    28     9    34 1   
    29     9    35 1   
    30    10    19 2   
    31    11    36 1   
    32    12    13 ar  
    33    12    17 1   
    34    13    14 ar  
    35    13    16 1   
    36    14    15 1   
    37    15    37 1   
    38    16    38 1   
    39    17    39 1   
    40    18    40 1   
    41    18    41 1   
@<TRIPOS>SUBSTRUCTURE
     1 3MZ         1 TEMP              0 ****  ****    0 ROOT
