@<TRIPOS>MOLECULE
3MZ
   41    41     1     0     0
SMALL
No Charge or Current Charge


@<TRIPOS>ATOM
      1 C4          -3.8090    -1.8820     0.1270 ca         1 3MZ      -0.222000
      2 C13          2.8110    -0.3520     0.0380 c3         1 3MZ      -0.076400
      3 C15          5.3770    -0.5790    -0.0090 c3         1 3MZ      -0.074400
      4 C17          7.9430    -0.8060    -0.0560 c3         1 3MZ      -0.074400
      5 C2          -2.3940     0.1240     0.1310 ca         1 3MZ      -0.303600
      6 C11          0.2440    -0.1330     0.0840 c3         1 3MZ      -0.167400
      7 C12          1.6030     0.6090     0.0710 c3         1 3MZ      -0.067400
      8 C16          6.7350     0.1560    -0.0220 c3         1 3MZ      -0.076400
      9 C18          9.2980    -0.0730    -0.0690 c3         1 3MZ      -0.089100
     10 C1          -1.0130     0.7590     0.1160 c          1 3MZ       0.607700
     11 C3          -2.5380    -1.2860     0.1140 ca         1 3MZ      -0.020000
     12 C5          -4.9610    -1.0900     0.1570 ca         1 3MZ       0.111100
     13 C6          -4.8510     0.3120     0.1730 ca         1 3MZ       0.046100
     14 C7          -3.5700     0.9200     0.1610 ca         1 3MZ       0.225100
     15 O8          -3.4770     2.2830     0.1770 oh         1 3MZ      -0.520100
     16 O9          -6.0050     1.0600     0.2020 oh         1 3MZ      -0.512100
     17 O10         -6.1950    -1.6800     0.1690 oh         1 3MZ      -0.548100
     18 C14          4.1690     0.3830     0.0240 c3         1 3MZ      -0.074400
     19 O19         -0.9000     1.9810     0.1310 o          1 3MZ      -0.572100
     20 H1          -3.8870    -2.9670     0.1140 ha         1 3MZ       0.119000
     21 H2           2.7680    -1.0140     0.9120 hc         1 3MZ       0.035700
     22 H3           2.7390    -0.9910    -0.8520 hc         1 3MZ       0.035700
     23 H4           5.3040    -1.2180    -0.8980 hc         1 3MZ       0.036700
     24 H5           5.3340    -1.2410     0.8650 hc         1 3MZ       0.036700
     25 H6           7.9050    -1.4690     0.8180 hc         1 3MZ       0.036200
     26 H7           7.8750    -1.4450    -0.9450 hc         1 3MZ       0.036200
     27 H8           0.1490    -0.8100    -0.7730 hc         1 3MZ       0.064200
     28 H9           0.1780    -0.8330     0.9240 hc         1 3MZ       0.064200
     29 H10          1.6760     1.2480     0.9610 hc         1 3MZ       0.054200
     30 H11          1.6460     1.2710    -0.8040 hc         1 3MZ       0.054200
     31 H12          6.7780     0.8180    -0.8960 hc         1 3MZ       0.037700
     32 H13          6.8080     0.7940     0.8670 hc         1 3MZ       0.037700
     33 H14          9.3820     0.5720    -0.9520 hc         1 3MZ       0.031367
     34 H15          9.4120     0.5480     0.8270 hc         1 3MZ       0.031367
     35 H16         10.1230    -0.7950    -0.0930 hc         1 3MZ       0.031367
     36 H17         -1.6730    -1.9450     0.0910 ha         1 3MZ       0.116000
     37 H18         -2.5070     2.4880     0.1640 ho         1 3MZ       0.513000
     38 H19         -6.7510     0.4180     0.2060 ho         1 3MZ       0.474000
     39 H20         -6.0750    -2.6550     0.1540 ho         1 3MZ       0.480000
     40 H21          4.2120     1.0450    -0.8500 hc         1 3MZ       0.040200
     41 H22          4.2420     1.0210     0.9140 hc         1 3MZ       0.040200
@<TRIPOS>BOND
     1     1    11 ar  
     2     1    12 ar  
     3     1    20 1   
     4     2     7 1   
     5     2    18 1   
     6     2    21 1   
     7     2    22 1   
     8     3     8 1   
     9     3    18 1   
    10     3    23 1   
    11     3    24 1   
    12     4     8 1   
    13     4     9 1   
    14     4    25 1   
    15     4    26 1   
    16     5    10 1   
    17     5    11 ar  
    18     5    14 ar  
    19     6     7 1   
    20     6    10 1   
    21     6    27 1   
    22     6    28 1   
    23     7    29 1   
    24     7    30 1   
    25     8    31 1   
    26     8    32 1   
    27     9    33 1   
    28     9    34 1   
    29     9    35 1   
    30    10    19 2   
    31    11    36 1   
    32    12    13 ar  
    33    12    17 1   
    34    13    14 ar  
    35    13    16 1   
    36    14    15 1   
    37    15    37 1   
    38    16    38 1   
    39    17    39 1   
    40    18    40 1   
    41    18    41 1   
@<TRIPOS>SUBSTRUCTURE
     1 3MZ         1 TEMP              0 ****  ****    0 ROOT
