@<TRIPOS>MOLECULE
3N0
   32    32     1     0     0
SMALL
bcc


@<TRIPOS>ATOM
      1 C1           0.6670     0.8780     0.0640 c          1 3N0       0.585700
      2 C2          -0.7290     0.3690     0.1050 ca         1 3N0      -0.138600
      3 C3          -1.0180    -0.9950     0.1010 ca         1 3N0      -0.170000
      4 C4          -2.3320    -1.4370     0.1390 ca         1 3N0       0.088100
      5 C5          -3.3780    -0.5140     0.1820 ca         1 3N0       0.112100
      6 C6          -3.0840     0.8530     0.1870 ca         1 3N0       0.088100
      7 C7          -1.7730     1.2910     0.1480 ca         1 3N0      -0.170000
      8 C11          1.8020    -0.1180     0.0490 c3         1 3N0      -0.172400
      9 C12          3.1840     0.5130    -0.0020 c3         1 3N0      -0.067400
     10 O8          -2.6820    -2.7380     0.1360 oh         1 3N0      -0.493100
     11 O9          -4.6370    -0.9830     0.2170 oh         1 3N0      -0.470100
     12 O10         -4.1540     1.6760     0.2300 oh         1 3N0      -0.493100
     13 C13          4.2930    -0.5310    -0.0060 c3         1 3N0      -0.077400
     14 C14          5.6850     0.0880    -0.0510 c3         1 3N0      -0.075400
     15 C15          6.7950    -0.9530    -0.0520 c3         1 3N0      -0.089100
     16 O16          0.8820     2.0740     0.0470 o          1 3N0      -0.527100
     17 H1          -0.2260    -1.7320     0.0700 ha         1 3N0       0.146000
     18 H2          -1.5640     2.3540     0.1510 ha         1 3N0       0.146000
     19 H3           1.7110    -0.7560     0.9360 hc         1 3N0       0.060700
     20 H4           1.6620    -0.7940    -0.8020 hc         1 3N0       0.060700
     21 H5           3.2720     1.1390    -0.8940 hc         1 3N0       0.052700
     22 H6           3.3180     1.1790     0.8540 hc         1 3N0       0.052700
     23 H7          -1.8960    -3.2940     0.0940 ho         1 3N0       0.432000
     24 H8          -5.2670    -0.2520     0.2460 ho         1 3N0       0.442000
     25 H9          -3.8770     2.5990     0.2360 ho         1 3N0       0.432000
     26 H10          4.2050    -1.1640     0.8840 hc         1 3N0       0.035200
     27 H11          4.1660    -1.2000    -0.8650 hc         1 3N0       0.035200
     28 H12          5.7710     0.7190    -0.9410 hc         1 3N0       0.039700
     29 H13          5.8080     0.7570     0.8060 hc         1 3N0       0.039700
     30 H14          6.7500    -1.5770     0.8430 hc         1 3N0       0.032033
     31 H15          6.7160    -1.6120    -0.9180 hc         1 3N0       0.032033
     32 H16          7.7810    -0.4880    -0.0800 hc         1 3N0       0.032033
@<TRIPOS>BOND
     1     1     2 1   
     2     1     8 1   
     3     1    16 2   
     4     2     3 ar  
     5     2     7 ar  
     6     3     4 ar  
     7     3    17 1   
     8     4     5 ar  
     9     4    10 1   
    10     5     6 ar  
    11     5    11 1   
    12     6     7 ar  
    13     6    12 1   
    14     7    18 1   
    15     8     9 1   
    16     8    19 1   
    17     8    20 1   
    18     9    13 1   
    19     9    21 1   
    20     9    22 1   
    21    10    23 1   
    22    11    24 1   
    23    12    25 1   
    24    13    14 1   
    25    13    26 1   
    26    13    27 1   
    27    14    15 1   
    28    14    28 1   
    29    14    29 1   
    30    15    30 1   
    31    15    31 1   
    32    15    32 1   
@<TRIPOS>SUBSTRUCTURE
     1 3N0         1 TEMP              0 ****  ****    0 ROOT
