@<TRIPOS>MOLECULE
3N0
   32    32     1     0     0
SMALL
No Charge or Current Charge


@<TRIPOS>ATOM
      1 C1           0.6360     0.9060     0.0790 c          1 3N0       0.585700
      2 C2          -0.7930     0.3770     0.1150 ca         1 3N0      -0.138600
      3 C3          -1.0800    -1.0120     0.1220 ca         1 3N0      -0.152000
      4 C4          -2.4080    -1.4770     0.1550 ca         1 3N0       0.088100
      5 C5          -3.4770    -0.5520     0.1810 ca         1 3N0       0.112100
      6 C6          -3.2040     0.8290     0.1740 ca         1 3N0       0.088100
      7 C7          -1.8770     1.2880     0.1410 ca         1 3N0      -0.152000
      8 C11          1.8130    -0.0910     0.0500 c3         1 3N0      -0.172400
      9 C12          3.2320     0.5300     0.0150 c3         1 3N0      -0.067400
     10 O8          -2.6470    -2.8280     0.1610 oh         1 3N0      -0.532100
     11 O9          -4.7850    -0.9690     0.2130 oh         1 3N0      -0.509100
     12 O10         -4.2390     1.7280     0.2000 oh         1 3N0      -0.532100
     13 C13          4.3510    -0.5340    -0.0120 c3         1 3N0      -0.077400
     14 C14          5.7680     0.0790    -0.0470 c3         1 3N0      -0.075400
     15 C15          6.8840    -0.9830    -0.0740 c3         1 3N0      -0.089100
     16 O16          0.8500     2.1150     0.0740 o          1 3N0      -0.527100
     17 H1          -0.2750    -1.7420     0.1020 ha         1 3N0       0.128000
     18 H2          -1.6840     2.3580     0.1370 ha         1 3N0       0.128000
     19 H3           1.6930    -0.7710     0.9020 hc         1 3N0       0.060700
     20 H4           1.6520    -0.7710    -0.7940 hc         1 3N0       0.060700
     21 H5           3.3240     1.1720    -0.8700 hc         1 3N0       0.052700
     22 H6           3.3670     1.1720     0.8950 hc         1 3N0       0.052700
     23 H7          -1.7890    -3.3040     0.1390 ho         1 3N0       0.471000
     24 H8          -5.3320    -0.1520     0.2270 ho         1 3N0       0.481000
     25 H9          -3.8700     2.6390     0.1910 ho         1 3N0       0.471000
     26 H10          4.2580    -1.1770     0.8720 hc         1 3N0       0.035200
     27 H11          4.2150    -1.1770    -0.8910 hc         1 3N0       0.035200
     28 H12          5.8650     0.7210    -0.9310 hc         1 3N0       0.039700
     29 H13          5.9080     0.7210     0.8320 hc         1 3N0       0.039700
     30 H14          6.8360    -1.6200     0.8170 hc         1 3N0       0.032033
     31 H15          6.7920    -1.6200    -0.9620 hc         1 3N0       0.032033
     32 H16          7.8690    -0.5010    -0.0990 hc         1 3N0       0.032033
@<TRIPOS>BOND
     1     1     2 1   
     2     1     8 1   
     3     1    16 2   
     4     2     3 ar  
     5     2     7 ar  
     6     3     4 ar  
     7     3    17 1   
     8     4     5 ar  
     9     4    10 1   
    10     5     6 ar  
    11     5    11 1   
    12     6     7 ar  
    13     6    12 1   
    14     7    18 1   
    15     8     9 1   
    16     8    19 1   
    17     8    20 1   
    18     9    13 1   
    19     9    21 1   
    20     9    22 1   
    21    10    23 1   
    22    11    24 1   
    23    12    25 1   
    24    13    14 1   
    25    13    26 1   
    26    13    27 1   
    27    14    15 1   
    28    14    28 1   
    29    14    29 1   
    30    15    30 1   
    31    15    31 1   
    32    15    32 1   
@<TRIPOS>SUBSTRUCTURE
     1 3N0         1 TEMP              0 ****  ****    0 ROOT
