@<TRIPOS>MOLECULE
3N1
   23    24     1     0     0
SMALL
No Charge or Current Charge


@<TRIPOS>ATOM
      1 Cl1         -4.5760     1.1160     0.2050 cl         1 3N1      -0.249000
      2 C2          -3.0470     0.2500     0.1130 ca         1 3N1       0.111000
      3 C3          -1.8660     0.9480    -0.2040 ca         1 3N1      -0.081000
      4 C5          -0.6560     0.2330    -0.2710 ca         1 3N1      -0.030800
      5 C6          -0.6260    -1.1250    -0.0360 ca         1 3N1      -0.184000
      6 S7           0.9970    -1.8380    -0.1810 ss         1 3N1       0.058400
      7 C8           1.6530    -0.2240    -0.5850 cc         1 3N1       0.091400
      8 C9           0.6640     0.7540    -0.5820 cd         1 3N1      -0.139400
      9 C10          0.9080     2.2170    -0.8800 c3         1 3N1      -0.011900
     10 C14          3.1240    -0.0770    -0.8850 c3         1 3N1      -0.190200
     11 C17          3.9270     0.1610     0.3960 c          1 3N1       0.729000
     12 O18          4.0710     1.3120     0.7800 o          1 3N1      -0.715000
     13 O19          4.2860    -0.8150     1.0370 o          1 3N1      -0.715000
     14 C21         -1.7930    -1.8380     0.2820 ca         1 3N1      -0.067000
     15 C23         -3.0130    -1.1380     0.3570 ca         1 3N1      -0.132000
     16 H3          -1.9000     2.0160    -0.3950 ha         1 3N1       0.122000
     17 H10          0.2980     2.8620    -0.2370 hc         1 3N1       0.032700
     18 H10A         1.9510     2.5050    -0.7130 hc         1 3N1       0.032700
     19 H10B         0.6590     2.4490    -1.9220 hc         1 3N1       0.032700
     20 H14          3.4350    -1.0240    -1.3410 hc         1 3N1       0.041700
     21 H14A         3.2350     0.7730    -1.5660 hc         1 3N1       0.041700
     22 H21         -1.7570    -2.9090     0.4670 ha         1 3N1       0.111000
     23 H23         -3.9290    -1.6690     0.6020 ha         1 3N1       0.111000
@<TRIPOS>BOND
     1     1     2 1   
     2     2     3 ar  
     3     2    15 ar  
     4     3     4 ar  
     5     3    16 1   
     6     4     5 ar  
     7     4     8 1   
     8     5     6 1   
     9     5    14 ar  
    10     6     7 1   
    11     7     8 2   
    12     7    10 1   
    13     8     9 1   
    14     9    17 1   
    15     9    18 1   
    16     9    19 1   
    17    10    11 1   
    18    10    20 1   
    19    10    21 1   
    20    11    12 1   
    21    11    13 1   
    22    14    15 ar  
    23    14    22 1   
    24    15    23 1   
@<TRIPOS>SUBSTRUCTURE
     1 3N1         1 TEMP              0 ****  ****    0 ROOT
