@<TRIPOS>MOLECULE
3N1
   23    24     1     0     0
SMALL
abcg2


@<TRIPOS>ATOM
      1 CL1         -4.5330     0.9500     0.2640 cl         1 3N1      -0.249000
      2 C2          -3.0010     0.1420     0.1190 ca         1 3N1       0.111000
      3 C3          -1.8770     0.8840    -0.1750 ca         1 3N1      -0.081000
      4 C5          -0.6490     0.2240    -0.2890 ca         1 3N1      -0.030800
      5 C6          -0.6020    -1.1670    -0.0960 ca         1 3N1      -0.184000
      6 S7           1.0140    -1.7530    -0.2820 ss         1 3N1       0.058400
      7 C8           1.6170    -0.1530    -0.6190 cc         1 3N1       0.091400
      8 C9           0.6400     0.7890    -0.5880 cd         1 3N1      -0.139400
      9 C10          0.8330     2.2550    -0.8040 c3         1 3N1      -0.011900
     10 C14          3.0720     0.0230    -0.8590 c3         1 3N1      -0.190200
     11 C17          3.9200     0.1950     0.4330 c          1 3N1       0.729000
     12 O18          5.1210     0.4570     0.2380 o          1 3N1      -0.715000
     13 O19          3.3410     0.0480     1.5210 o          1 3N1      -0.715000
     14 C21         -1.7440    -1.9020     0.1990 ca         1 3N1      -0.067000
     15 C23         -2.9540    -1.2410     0.3070 ca         1 3N1      -0.132000
     16 H3          -1.9440     1.9550    -0.3140 ha         1 3N1       0.122000
     17 H10          0.5820     2.8190     0.0960 hc         1 3N1       0.032700
     18 H10A         1.8610     2.4970    -1.0650 hc         1 3N1       0.032700
     19 H10B         0.1930     2.6290    -1.6060 hc         1 3N1       0.032700
     20 H14          3.4730    -0.8320    -1.4120 hc         1 3N1       0.041700
     21 H14A         3.2360     0.8860    -1.5080 hc         1 3N1       0.041700
     22 H21         -1.6980    -2.9740     0.3430 ha         1 3N1       0.111000
     23 H23         -3.8550    -1.7920     0.5360 ha         1 3N1       0.111000
@<TRIPOS>BOND
     1     1     2 1   
     2     2     3 ar  
     3     2    15 ar  
     4     3     4 ar  
     5     3    16 1   
     6     4     5 ar  
     7     4     8 1   
     8     5     6 1   
     9     5    14 ar  
    10     6     7 1   
    11     7     8 2   
    12     7    10 1   
    13     8     9 1   
    14     9    17 1   
    15     9    18 1   
    16     9    19 1   
    17    10    11 1   
    18    10    20 1   
    19    10    21 1   
    20    11    12 1   
    21    11    13 1   
    22    14    15 ar  
    23    14    22 1   
    24    15    23 1   
@<TRIPOS>SUBSTRUCTURE
     1 3N1         1 TEMP              0 ****  ****    0 ROOT
