@<TRIPOS>MOLECULE
3N2
   20    21     1     0     0
SMALL
No Charge or Current Charge


@<TRIPOS>ATOM
      1 Cl1         -3.4520     1.6900     0.1860 cl         1 3N2      -0.239000
      2 C2          -2.2550     0.4020     0.1260 ca         1 3N2       0.095000
      3 C3          -0.9290     0.6930    -0.2460 ca         1 3N2      -0.019000
      4 C5           0.0080    -0.3560    -0.2870 ca         1 3N2      -0.035800
      5 C6          -0.3630    -1.6470     0.0330 ca         1 3N2      -0.151000
      6 S7           0.9680    -2.8240    -0.0770 ss         1 3N2      -0.032600
      7 C8           2.0580    -1.5030    -0.5780 cc         1 3N2      -0.190400
      8 C10          1.4150    -0.2800    -0.6410 cd         1 3N2       0.033600
      9 C11          2.1210     0.9920    -1.0500 c3         1 3N2      -0.182200
     10 C14          2.5420     1.8140     0.1750 c          1 3N2       0.723000
     11 O15          1.7410     2.6140     0.6350 o          1 3N2      -0.722000
     12 O16          3.6110     1.5490     0.7050 o          1 3N2      -0.722000
     13 C18         -1.6800    -1.9560     0.4060 ca         1 3N2      -0.093000
     14 C20         -2.6320    -0.9180     0.4510 ca         1 3N2      -0.112000
     15 H3          -0.6440     1.7110    -0.4940 ha         1 3N2       0.152000
     16 H8           3.0960    -1.7270    -0.7890 h4         1 3N2       0.206000
     17 H11          3.0140     0.6870    -1.6080 hc         1 3N2       0.036200
     18 H11A         1.4180     1.5660    -1.6650 hc         1 3N2       0.036200
     19 H18         -1.9620    -2.9760     0.6570 ha         1 3N2       0.107000
     20 H20         -3.6580    -1.1350     0.7380 ha         1 3N2       0.109000
@<TRIPOS>BOND
     1     1     2 1   
     2     2     3 ar  
     3     2    14 ar  
     4     3     4 ar  
     5     3    15 1   
     6     4     5 ar  
     7     4     8 1   
     8     5     6 1   
     9     5    13 ar  
    10     6     7 1   
    11     7     8 2   
    12     7    16 1   
    13     8     9 1   
    14     9    10 1   
    15     9    17 1   
    16     9    18 1   
    17    10    11 1   
    18    10    12 1   
    19    13    14 ar  
    20    13    19 1   
    21    14    20 1   
@<TRIPOS>SUBSTRUCTURE
     1 3N2         1 TEMP              0 ****  ****    0 ROOT
