@<TRIPOS>MOLECULE
3N2
   20    21     1     0     0
SMALL
abcg2


@<TRIPOS>ATOM
      1 CL1         -3.2750     1.8140     0.0700 cl         1 3N2      -0.239000
      2 C2          -2.1650     0.4790     0.0570 ca         1 3N2       0.095000
      3 C3          -0.8420     0.7070    -0.2480 ca         1 3N2      -0.019000
      4 C5           0.0390    -0.3800    -0.2610 ca         1 3N2      -0.035800
      5 C6          -0.4500    -1.6590     0.0490 ca         1 3N2      -0.151000
      6 S7           0.8090    -2.8450    -0.0300 ss         1 3N2      -0.032600
      7 C8           1.9600    -1.6310    -0.4850 cc         1 3N2      -0.190400
      8 C10          1.4470    -0.3820    -0.5670 cd         1 3N2       0.033600
      9 C11          2.2200     0.8320    -0.9530 c3         1 3N2      -0.182200
     10 C14          2.4680     1.8380     0.1980 c          1 3N2       0.723000
     11 O15          1.9440     1.5960     1.2990 o          1 3N2      -0.722000
     12 O16          3.1800     2.8170    -0.0990 o          1 3N2      -0.722000
     13 C18         -1.7890    -1.8740     0.3650 ca         1 3N2      -0.093000
     14 C20         -2.6500    -0.7960     0.3670 ca         1 3N2      -0.112000
     15 H3          -0.4940     1.7030    -0.4850 ha         1 3N2       0.152000
     16 H8           2.9830    -1.9220    -0.6740 h4         1 3N2       0.206000
     17 H11          3.1840     0.5360    -1.3760 hc         1 3N2       0.036200
     18 H11A         1.6990     1.3630    -1.7580 hc         1 3N2       0.036200
     19 H18         -2.1560    -2.8630     0.6030 ha         1 3N2       0.107000
     20 H20         -3.6950    -0.9380     0.6050 ha         1 3N2       0.109000
@<TRIPOS>BOND
     1     1     2 1   
     2     2     3 ar  
     3     2    14 ar  
     4     3     4 ar  
     5     3    15 1   
     6     4     5 ar  
     7     4     8 1   
     8     5     6 1   
     9     5    13 ar  
    10     6     7 1   
    11     7     8 2   
    12     7    16 1   
    13     8     9 1   
    14     9    10 1   
    15     9    17 1   
    16     9    18 1   
    17    10    11 1   
    18    10    12 1   
    19    13    14 ar  
    20    13    19 1   
    21    14    20 1   
@<TRIPOS>SUBSTRUCTURE
     1 3N2         1 TEMP              0 ****  ****    0 ROOT
