@<TRIPOS>MOLECULE
3N4
   26    28     1     0     0
SMALL
abcg2


@<TRIPOS>ATOM
      1 S1           2.2860    -2.1590    -0.0070 ss         1 3N4      -0.003600
      2 C2           0.5960    -1.8320    -0.0790 ca         1 3N4      -0.181000
      3 C3           0.3020    -0.4960     0.2010 ca         1 3N4      -0.018800
      4 C4          -1.0770    -0.0920     0.1840 ca         1 3N4       0.021000
      5 C5          -2.0630    -1.0750    -0.1140 ca         1 3N4      -0.047000
      6 C6          -1.6870    -2.4180    -0.3930 ca         1 3N4      -0.115000
      7 C8          -0.3830    -2.8000    -0.3790 ca         1 3N4      -0.079000
      8 C10         -3.4280    -0.7150    -0.1360 ca         1 3N4      -0.122000
      9 C12         -3.8270     0.5680     0.1270 ca         1 3N4      -0.118000
     10 C14         -2.8600     1.5420     0.4210 ca         1 3N4      -0.127000
     11 C16         -1.5250     1.2210     0.4480 ca         1 3N4      -0.063000
     12 C18          1.5030     0.2610     0.4780 cc         1 3N4       0.027600
     13 C19          2.6100    -0.5210     0.4020 cd         1 3N4      -0.197400
     14 C21          1.6080     1.7110     0.8180 c3         1 3N4      -0.182200
     15 C24          1.2980     2.6770    -0.3520 c          1 3N4       0.719000
     16 O25          1.0340     3.8510    -0.0250 o          1 3N4      -0.722500
     17 O26          1.3690     2.2150    -1.5030 o          1 3N4      -0.722500
     18 H6          -2.4630    -3.1400    -0.6170 ha         1 3N4       0.095000
     19 H8          -0.0970    -3.8220    -0.5900 ha         1 3N4       0.103000
     20 H10         -4.1610    -1.4790    -0.3630 ha         1 3N4       0.093000
     21 H12         -4.8760     0.8300     0.1090 ha         1 3N4       0.094000
     22 H14         -3.1670     2.5580     0.6310 ha         1 3N4       0.109000
     23 H16         -0.8260     2.0080     0.6760 ha         1 3N4       0.160000
     24 H19          3.6280    -0.2030     0.5680 h4         1 3N4       0.207000
     25 H21          0.9970     1.9640     1.6880 hc         1 3N4       0.034200
     26 H21A         2.6390     1.9140     1.1280 hc         1 3N4       0.034200
@<TRIPOS>BOND
     1     1     2 1   
     2     1    13 1   
     3     2     3 ar  
     4     2     7 ar  
     5     3     4 ar  
     6     3    12 1   
     7     4     5 ar  
     8     4    11 ar  
     9     5     6 ar  
    10     5     8 ar  
    11     6     7 ar  
    12     6    18 1   
    13     7    19 1   
    14     8     9 ar  
    15     8    20 1   
    16     9    10 ar  
    17     9    21 1   
    18    10    11 ar  
    19    10    22 1   
    20    11    23 1   
    21    12    13 2   
    22    12    14 1   
    23    13    24 1   
    24    14    15 1   
    25    14    25 1   
    26    14    26 1   
    27    15    16 1   
    28    15    17 1   
@<TRIPOS>SUBSTRUCTURE
     1 3N4         1 TEMP              0 ****  ****    0 ROOT
