@<TRIPOS>MOLECULE
3N4
   26    28     1     0     0
SMALL
No Charge or Current Charge


@<TRIPOS>ATOM
      1 S1           2.2490    -2.1460    -0.3680 ss         1 3N4      -0.003600
      2 C2           0.5290    -1.8000    -0.1950 ca         1 3N4      -0.181000
      3 C3           0.2180    -0.4720     0.1020 ca         1 3N4      -0.018800
      4 C4          -1.1640    -0.0920     0.1680 ca         1 3N4       0.021000
      5 C5          -2.1570    -1.1040     0.0200 ca         1 3N4      -0.047000
      6 C6          -1.7940    -2.4400    -0.2300 ca         1 3N4      -0.115000
      7 C8          -0.4470    -2.7880    -0.3590 ca         1 3N4      -0.079000
      8 C10         -3.5280    -0.7930     0.1050 ca         1 3N4      -0.122000
      9 C12         -3.9430     0.5270     0.3150 ca         1 3N4      -0.118000
     10 C14         -2.9860     1.5420     0.4230 ca         1 3N4      -0.127000
     11 C16         -1.6160     1.2390     0.3440 ca         1 3N4      -0.063000
     12 C18          1.4510     0.3230     0.3040 cc         1 3N4       0.027600
     13 C19          2.5710    -0.4540     0.0440 cd         1 3N4      -0.197400
     14 C21          1.6340     1.7220     0.8560 c3         1 3N4      -0.182200
     15 C24          1.8540     2.7640    -0.2550 c          1 3N4       0.719000
     16 O25          0.8830     3.3440    -0.7150 o          1 3N4      -0.722500
     17 O26          2.9820     2.8810    -0.7110 o          1 3N4      -0.722500
     18 H6          -2.5580    -3.2060    -0.3490 ha         1 3N4       0.095000
     19 H8          -0.1640    -3.8150    -0.5810 ha         1 3N4       0.103000
     20 H10         -4.2750    -1.5760    -0.0000 ha         1 3N4       0.093000
     21 H12         -5.0030     0.7640     0.3760 ha         1 3N4       0.094000
     22 H14         -3.3050     2.5730     0.5600 ha         1 3N4       0.109000
     23 H16         -0.9350     2.0710     0.3880 ha         1 3N4       0.160000
     24 H19          3.6040    -0.1350     0.1300 h4         1 3N4       0.207000
     25 H21          0.7810     1.9680     1.4910 hc         1 3N4       0.034200
     26 H21A         2.5500     1.6710     1.4570 hc         1 3N4       0.034200
@<TRIPOS>BOND
     1     1     2 1   
     2     1    13 1   
     3     2     3 ar  
     4     2     7 ar  
     5     3     4 ar  
     6     3    12 1   
     7     4     5 ar  
     8     4    11 ar  
     9     5     6 ar  
    10     5     8 ar  
    11     6     7 ar  
    12     6    18 1   
    13     7    19 1   
    14     8     9 ar  
    15     8    20 1   
    16     9    10 ar  
    17     9    21 1   
    18    10    11 ar  
    19    10    22 1   
    20    11    23 1   
    21    12    13 2   
    22    12    14 1   
    23    13    24 1   
    24    14    15 1   
    25    14    25 1   
    26    14    26 1   
    27    15    16 1   
    28    15    17 1   
@<TRIPOS>SUBSTRUCTURE
     1 3N4         1 TEMP              0 ****  ****    0 ROOT
