@<TRIPOS>MOLECULE
3N5
   36    38     1     0     0
SMALL
abcg2


@<TRIPOS>ATOM
      1 N1           3.0410    75.6840    25.7920 n          1 3N5      -0.175400
      2 C2           4.4400    75.7870    25.3220 c5         1 3N5      -0.027300
      3 C4           4.6520    77.3100    25.1400 c5         1 3N5      -0.022100
      4 C7           3.2550    77.8670    25.1420 ca         1 3N5      -0.116300
      5 C8           2.3490    76.8850    25.5550 ca         1 3N5       0.014000
      6 C9           0.9920    77.1650    25.6800 ca         1 3N5      -0.138000
      7 C11          0.5590    78.4560    25.3720 ca         1 3N5      -0.102000
      8 C13          1.4500    79.4370    24.9520 ca         1 3N5      -0.162000
      9 C15          2.8110    79.1410    24.8380 ca         1 3N5      -0.085000
     10 C17          4.6900    75.0220    23.9940 c          1 3N5       0.708000
     11 O18          3.6990    74.6920    23.3030 o          1 3N5      -0.717500
     12 O19          5.9020    74.8350    23.7270 o          1 3N5      -0.717500
     13 C21          2.4750    74.5030    26.1450 c          1 3N5       0.664100
     14 O22          1.2870    74.3150    26.3550 o          1 3N5      -0.575000
     15 O23          3.4170    73.5440    26.2620 os         1 3N5      -0.432100
     16 C24          2.9460    72.1910    26.4480 c3         1 3N5       0.230900
     17 C27          4.0810    71.2650    26.1230 ca         1 3N5      -0.095300
     18 C28          4.5060    70.3130    27.0450 ca         1 3N5      -0.080500
     19 C30          5.5420    69.4360    26.7300 ca         1 3N5      -0.122500
     20 C32          6.1660    69.5150    25.4900 ca         1 3N5      -0.117000
     21 C34          5.7500    70.4710    24.5650 ca         1 3N5      -0.122500
     22 C36          4.7110    71.3380    24.8780 ca         1 3N5      -0.080500
     23 H2           5.1090    75.3810    26.0750 h1         1 3N5       0.066700
     24 H4           5.2330    77.7260    25.9670 hc         1 3N5       0.051700
     25 H4A          5.1960    77.5280    24.2210 hc         1 3N5       0.051700
     26 H9           0.2970    76.4050    25.9980 ha         1 3N5       0.140000
     27 H11         -0.4950    78.6890    25.4600 ha         1 3N5       0.093000
     28 H13          1.0910    80.4300    24.7140 ha         1 3N5       0.093000
     29 H15          3.5130    79.9000    24.5150 ha         1 3N5       0.100000
     30 H24          2.6120    72.0630    27.4780 h1         1 3N5       0.048200
     31 H24A         2.0970    72.0270    25.7850 h1         1 3N5       0.048200
     32 H28          4.0270    70.2570    28.0150 ha         1 3N5       0.133500
     33 H30          5.8630    68.6990    27.4550 ha         1 3N5       0.106500
     34 H32          6.9750    68.8380    25.2450 ha         1 3N5       0.097000
     35 H34          6.2350    70.5380    23.5990 ha         1 3N5       0.106500
     36 H36          4.3910    72.0840    24.1620 ha         1 3N5       0.133500
@<TRIPOS>BOND
     1     1     2 1   
     2     1     5 1   
     3     1    13 1   
     4     2     3 1   
     5     2    10 1   
     6     2    23 1   
     7     3     4 1   
     8     3    24 1   
     9     3    25 1   
    10     4     5 ar  
    11     4     9 ar  
    12     5     6 ar  
    13     6     7 ar  
    14     6    26 1   
    15     7     8 ar  
    16     7    27 1   
    17     8     9 ar  
    18     8    28 1   
    19     9    29 1   
    20    10    11 1   
    21    10    12 1   
    22    13    14 2   
    23    13    15 1   
    24    15    16 1   
    25    16    17 1   
    26    16    30 1   
    27    16    31 1   
    28    17    18 ar  
    29    17    22 ar  
    30    18    19 ar  
    31    18    32 1   
    32    19    20 ar  
    33    19    33 1   
    34    20    21 ar  
    35    20    34 1   
    36    21    22 ar  
    37    21    35 1   
    38    22    36 1   
@<TRIPOS>SUBSTRUCTURE
     1 3N5         1 TEMP              0 ****  ****    0 ROOT
