@<TRIPOS>MOLECULE
3N5
   36    38     1     0     0
SMALL
No Charge or Current Charge


@<TRIPOS>ATOM
      1 N1           2.9400    75.6870    25.4750 n          1 3N5      -0.175400
      2 C2           4.3840    75.8100    25.0840 c5         1 3N5      -0.027300
      3 C4           4.5800    77.3750    24.8890 c5         1 3N5      -0.022100
      4 C7           3.1960    77.9260    25.1780 ca         1 3N5      -0.116300
      5 C8           2.2820    76.9410    25.4960 ca         1 3N5       0.014000
      6 C9           0.9430    77.2570    25.7980 ca         1 3N5      -0.138000
      7 C11          0.5450    78.6080    25.7610 ca         1 3N5      -0.102000
      8 C13          1.4770    79.6140    25.4320 ca         1 3N5      -0.162000
      9 C15          2.8130    79.2760    25.1380 ca         1 3N5      -0.085000
     10 C17          4.7730    75.0830    23.7600 c          1 3N5       0.708000
     11 O18          3.9380    74.9430    22.8760 o          1 3N5      -0.717500
     12 O19          5.9070    74.6370    23.6500 o          1 3N5      -0.717500
     13 C21          2.3700    74.4210    25.7710 c          1 3N5       0.664100
     14 O22          1.1910    74.2380    26.0500 o          1 3N5      -0.575000
     15 O23          3.3080    73.4220    25.7740 os         1 3N5      -0.432100
     16 C24          2.8680    72.0870    26.0600 c3         1 3N5       0.230900
     17 C27          4.0750    71.1580    26.0040 ca         1 3N5      -0.095300
     18 C28          4.5100    70.4780    27.1600 ca         1 3N5      -0.080500
     19 C30          5.6220    69.6190    27.1000 ca         1 3N5      -0.122500
     20 C32          6.3050    69.4350    25.8860 ca         1 3N5      -0.117000
     21 C34          5.8770    70.1110    24.7320 ca         1 3N5      -0.122500
     22 C36          4.7660    70.9700    24.7900 ca         1 3N5      -0.080500
     23 H2           5.0320    75.4330    25.8850 h1         1 3N5       0.066700
     24 H4           5.3290    77.7710    25.5840 hc         1 3N5       0.051700
     25 H4A          4.9140    77.6310    23.8770 hc         1 3N5       0.051700
     26 H9           0.2180    76.4910    26.0560 ha         1 3N5       0.140000
     27 H11         -0.4840    78.8760    25.9890 ha         1 3N5       0.093000
     28 H13          1.1640    80.6550    25.4060 ha         1 3N5       0.093000
     29 H15          3.5350    80.0490    24.8840 ha         1 3N5       0.100000
     30 H24          2.4050    72.0360    27.0550 h1         1 3N5       0.048200
     31 H24A         2.1250    71.7560    25.3230 h1         1 3N5       0.048200
     32 H28          3.9880    70.6140    28.1050 ha         1 3N5       0.133500
     33 H30          5.9530    69.0970    27.9950 ha         1 3N5       0.106500
     34 H32          7.1650    68.7700    25.8410 ha         1 3N5       0.097000
     35 H34          6.4060    69.9700    23.7920 ha         1 3N5       0.106500
     36 H36          4.4420    71.4940    23.8920 ha         1 3N5       0.133500
@<TRIPOS>BOND
     1     1     2 1   
     2     1     5 1   
     3     1    13 1   
     4     2     3 1   
     5     2    10 1   
     6     2    23 1   
     7     3     4 1   
     8     3    24 1   
     9     3    25 1   
    10     4     5 ar  
    11     4     9 ar  
    12     5     6 ar  
    13     6     7 ar  
    14     6    26 1   
    15     7     8 ar  
    16     7    27 1   
    17     8     9 ar  
    18     8    28 1   
    19     9    29 1   
    20    10    11 1   
    21    10    12 1   
    22    13    14 2   
    23    13    15 1   
    24    15    16 1   
    25    16    17 1   
    26    16    30 1   
    27    16    31 1   
    28    17    18 ar  
    29    17    22 ar  
    30    18    19 ar  
    31    18    32 1   
    32    19    20 ar  
    33    19    33 1   
    34    20    21 ar  
    35    20    34 1   
    36    21    22 ar  
    37    21    35 1   
    38    22    36 1   
@<TRIPOS>SUBSTRUCTURE
     1 3N5         1 TEMP              0 ****  ****    0 ROOT
