@<TRIPOS>MOLECULE
3N6
  101   106     1     0     0
SMALL
bcc


@<TRIPOS>ATOM
      1 N1           5.0490     0.6700    -6.5050 n8         1 3N6      -0.885800
      2 C2           4.3980    -0.0000    -5.3880 c3         1 3N6       0.150800
      3 C3           4.9450     0.4970    -4.0600 c3         1 3N6      -0.080400
      4 C4           4.2680    -0.1610    -2.8650 c3         1 3N6      -0.074400
      5 C5           4.8770     0.2870    -1.5440 c3         1 3N6      -0.090400
      6 C6           4.2150    -0.3540    -0.3150 c3         1 3N6       0.036700
      7 N8           2.8810     0.1540    -0.1100 ns         1 3N6      -0.561900
      8 C9           1.7540    -0.4990    -0.4290 c          1 3N6       0.667100
      9 O10          1.7200    -1.6170    -0.9190 o          1 3N6      -0.607100
     10 C11          0.4880     0.3160    -0.1830 c3         1 3N6       0.044700
     11 C13          0.3220     1.3530    -1.3210 c3         1 3N6      -0.047100
     12 C14         -0.9380     2.1450    -1.1350 ca         1 3N6      -0.119300
     13 C15         -2.1350     1.7320    -1.7090 ca         1 3N6      -0.038000
     14 C16         -3.3110     2.4110    -1.4420 ca         1 3N6      -0.088400
     15 BR17        -4.9230     1.8260    -2.2210 br         1 3N6      -0.084600
     16 C18         -3.3460     3.5290    -0.6060 ca         1 3N6       0.203100
     17 O19         -4.5200     4.1290    -0.4030 oh         1 3N6      -0.469100
     18 C20         -2.1280     3.9340    -0.0510 ca         1 3N6      -0.088400
     19 BR21        -2.0920     5.4420     1.0860 br         1 3N6      -0.084600
     20 C22         -0.9490     3.2570    -0.3060 ca         1 3N6      -0.038000
     21 N23         -0.6450    -0.5560    -0.0930 ns         1 3N6      -0.582900
     22 C24         -1.6840    -0.2970     0.7510 c          1 3N6       0.799100
     23 O25         -1.5790     0.5220     1.6570 o          1 3N6      -0.641100
     24 N26         -2.8250    -1.0310     0.5620 n          1 3N6      -0.480800
     25 C27         -3.9730    -0.7510     1.4090 c6         1 3N6       0.102000
     26 C28         -4.7220    -2.0320     1.7480 c6         1 3N6      -0.104900
     27 C29         -5.1430    -2.7360     0.4640 c6         1 3N6       0.132700
     28 C30         -3.9280    -2.9900    -0.4240 c6         1 3N6      -0.104900
     29 C31         -3.1880    -1.6850    -0.6850 c6         1 3N6       0.102000
     30 N32         -5.9890    -3.9080     0.6770 n          1 3N6      -0.474800
     31 C33         -7.1490    -4.0410    -0.1970 c6         1 3N6       0.160300
     32 C34         -8.1990    -4.9020     0.4320 ca         1 3N6      -0.150300
     33 C35         -9.5580    -4.7370     0.2180 ca         1 3N6      -0.082000
     34 C36        -10.4720    -5.6250     0.7720 ca         1 3N6      -0.159000
     35 C37        -10.0150    -6.6790     1.5530 ca         1 3N6      -0.088000
     36 C38         -8.6590    -6.8420     1.7940 ca         1 3N6      -0.178000
     37 C39         -7.7540    -5.9470     1.2320 ca         1 3N6       0.089600
     38 N40         -6.3860    -6.0550     1.4420 ns         1 3N6      -0.475100
     39 C41         -5.5130    -4.9950     1.3380 c          1 3N6       0.820500
     40 O42         -4.3990    -5.0690     1.8380 o          1 3N6      -0.657500
     41 C43          5.0380    -0.0350     0.9340 c          1 3N6       0.667100
     42 O44          4.7000     0.8880     1.6630 o          1 3N6      -0.605100
     43 N45          6.1420    -0.7700     1.1620 n          1 3N6      -0.472800
     44 C46          7.0220    -0.4880     2.2770 c6         1 3N6       0.086000
     45 C47          8.4170    -0.1500     1.7840 c6         1 3N6       0.190300
     46 N48          8.9430    -1.1900     0.9110 nh         1 3N6      -0.663000
     47 C49          8.0410    -1.5720    -0.1600 c6         1 3N6       0.190300
     48 C50          6.6430    -1.8660     0.3600 c6         1 3N6       0.086000
     49 C51         10.2970    -1.2950     0.7200 ca         1 3N6       0.219600
     50 C52         10.8570    -1.9480    -0.3940 ca         1 3N6      -0.323300
     51 C53         12.2300    -2.0610    -0.5060 ca         1 3N6       0.431200
     52 N54         13.1070    -1.5840     0.3700 nb         1 3N6      -0.690000
     53 C55         12.5830    -0.9540     1.4170 ca         1 3N6       0.431200
     54 C56         11.2310    -0.7770     1.6370 ca         1 3N6      -0.323300
     55 HN1          6.0260     0.4030    -6.5300 hn         1 3N6       0.337300
     56 HN1A         4.6540     0.3370    -7.3750 hn         1 3N6       0.337300
     57 H2           3.3270     0.2150    -5.4380 h1         1 3N6       0.027700
     58 H2A          4.4900    -1.0960    -5.4200 h1         1 3N6       0.027700
     59 H3           6.0230     0.3040    -4.0180 hc         1 3N6       0.045200
     60 H3A          4.8240     1.5830    -4.0040 hc         1 3N6       0.045200
     61 H4           3.1990     0.0690    -2.8860 hc         1 3N6       0.046200
     62 H4A          4.3500    -1.2490    -2.9470 hc         1 3N6       0.046200
     63 H5           5.9450     0.0520    -1.5490 hc         1 3N6       0.050700
     64 H5A          4.8120     1.3750    -1.4450 hc         1 3N6       0.050700
     65 H6           4.1310    -1.4320    -0.4590 h1         1 3N6       0.093700
     66 HN8          2.8120     1.0480     0.3520 hn         1 3N6       0.337500
     67 H11          0.5820     0.8500     0.7630 h1         1 3N6       0.102700
     68 H13          1.1870     2.0190    -1.3360 hc         1 3N6       0.058200
     69 H13A         0.3030     0.8310    -2.2810 hc         1 3N6       0.058200
     70 H15         -2.1460     0.8730    -2.3670 ha         1 3N6       0.147500
     71 HO19        -4.4440     4.8980     0.1750 ho         1 3N6       0.447000
     72 H22         -0.0270     3.5930     0.1510 ha         1 3N6       0.147500
     73 HN23        -0.7020    -1.2880    -0.7800 hn         1 3N6       0.329500
     74 H27         -3.6400    -0.2620     2.3190 h1         1 3N6       0.048700
     75 H27A        -4.6480    -0.0530     0.8930 h1         1 3N6       0.048700
     76 H28         -4.0840    -2.6760     2.3530 hc         1 3N6       0.068200
     77 H28A        -5.6040    -1.7780     2.3410 hc         1 3N6       0.068200
     78 H29         -5.7840    -2.0310    -0.0770 h1         1 3N6       0.044700
     79 H30         -3.2510    -3.7020     0.0500 hc         1 3N6       0.068200
     80 H30A        -4.2400    -3.4120    -1.3820 hc         1 3N6       0.068200
     81 H31         -3.8260    -1.0130    -1.2740 h1         1 3N6       0.048700
     82 H31A        -2.3190    -1.9030    -1.3000 h1         1 3N6       0.048700
     83 H33         -7.5500    -3.0460    -0.3880 h1         1 3N6       0.049700
     84 H33A        -6.8550    -4.4560    -1.1710 h1         1 3N6       0.049700
     85 H35         -9.9050    -3.9130    -0.3940 ha         1 3N6       0.132000
     86 H36        -11.5310    -5.4950     0.5950 ha         1 3N6       0.136000
     87 H37        -10.7180    -7.3780     1.9870 ha         1 3N6       0.134000
     88 H38         -8.3060    -7.6580     2.4140 ha         1 3N6       0.137000
     89 HN40        -6.0530    -6.8180     2.0120 hn         1 3N6       0.331500
     90 H46          6.6340     0.3420     2.8590 h1         1 3N6       0.068700
     91 H46A         7.0610    -1.3690     2.9240 h1         1 3N6       0.068700
     92 H47          8.3990     0.8160     1.2630 h1         1 3N6       0.052450
     93 H47A         9.0470    -0.0400     2.6620 h1         1 3N6       0.052450
     94 H49          8.0000    -0.7930    -0.9350 h1         1 3N6       0.052450
     95 H49A         8.3890    -2.4860    -0.6340 h1         1 3N6       0.052450
     96 H50          6.6670    -2.7690     0.9770 h1         1 3N6       0.068700
     97 H50A         5.9980    -2.0790    -0.4890 h1         1 3N6       0.068700
     98 H52         10.2560    -2.3660    -1.1870 ha         1 3N6       0.136500
     99 H53         12.6390    -2.5700    -1.3730 h4         1 3N6       0.014600
    100 H55         13.2830    -0.5550     2.1430 h4         1 3N6       0.014600
    101 H56         10.9340    -0.2450     2.5270 ha         1 3N6       0.136500
@<TRIPOS>BOND
     1     1     2 1   
     2     1    55 1   
     3     1    56 1   
     4     2     3 1   
     5     2    57 1   
     6     2    58 1   
     7     3     4 1   
     8     3    59 1   
     9     3    60 1   
    10     4     5 1   
    11     4    61 1   
    12     4    62 1   
    13     5     6 1   
    14     5    63 1   
    15     5    64 1   
    16     6     7 1   
    17     6    41 1   
    18     6    65 1   
    19     7     8 1   
    20     7    66 1   
    21     8     9 2   
    22     8    10 1   
    23    10    11 1   
    24    10    21 1   
    25    10    67 1   
    26    11    12 1   
    27    11    68 1   
    28    11    69 1   
    29    12    13 ar  
    30    12    20 ar  
    31    13    14 ar  
    32    13    70 1   
    33    14    15 1   
    34    14    16 ar  
    35    16    17 1   
    36    16    18 ar  
    37    17    71 1   
    38    18    19 1   
    39    18    20 ar  
    40    20    72 1   
    41    21    22 1   
    42    21    73 1   
    43    22    23 2   
    44    22    24 1   
    45    24    25 1   
    46    24    29 1   
    47    25    26 1   
    48    25    74 1   
    49    25    75 1   
    50    26    27 1   
    51    26    76 1   
    52    26    77 1   
    53    27    28 1   
    54    27    30 1   
    55    27    78 1   
    56    28    29 1   
    57    28    79 1   
    58    28    80 1   
    59    29    81 1   
    60    29    82 1   
    61    30    31 1   
    62    30    39 1   
    63    31    32 1   
    64    31    83 1   
    65    31    84 1   
    66    32    33 ar  
    67    32    37 ar  
    68    33    34 ar  
    69    33    85 1   
    70    34    35 ar  
    71    34    86 1   
    72    35    36 ar  
    73    35    87 1   
    74    36    37 ar  
    75    36    88 1   
    76    37    38 1   
    77    38    39 1   
    78    38    89 1   
    79    39    40 2   
    80    41    42 2   
    81    41    43 1   
    82    43    44 1   
    83    43    48 1   
    84    44    45 1   
    85    44    90 1   
    86    44    91 1   
    87    45    46 1   
    88    45    92 1   
    89    45    93 1   
    90    46    47 1   
    91    46    49 1   
    92    47    48 1   
    93    47    94 1   
    94    47    95 1   
    95    48    96 1   
    96    48    97 1   
    97    49    50 ar  
    98    49    54 ar  
    99    50    51 ar  
   100    50    98 1   
   101    51    52 ar  
   102    51    99 1   
   103    52    53 ar  
   104    53    54 ar  
   105    53   100 1   
   106    54   101 1   
@<TRIPOS>SUBSTRUCTURE
     1 3N6         1 TEMP              0 ****  ****    0 ROOT
