@<TRIPOS>MOLECULE
3N6
  101   106     1     0     0
SMALL
No Charge or Current Charge


@<TRIPOS>ATOM
      1 N1           3.7080    -0.5700    -6.8510 n8         1 3N6      -0.996200
      2 C2           3.3390    -0.8620    -5.4540 c3         1 3N6       0.150800
      3 C3           4.2380    -0.1000    -4.4590 c3         1 3N6      -0.080400
      4 C4           3.8740    -0.3830    -2.9850 c3         1 3N6      -0.074400
      5 C5           4.7680     0.3850    -1.9830 c3         1 3N6      -0.090400
      6 C6           4.4870     0.0640    -0.4870 c3         1 3N6       0.036700
      7 N8           3.1130     0.4690    -0.1040 ns         1 3N6      -0.494900
      8 C9           2.0110    -0.3620    -0.0890 c          1 3N6       0.600100
      9 O10          2.0960    -1.5520    -0.3690 o          1 3N6      -0.607100
     10 C11          0.6730     0.3260     0.3050 c3         1 3N6       0.044700
     11 C13          0.2160     1.3370    -0.7880 c3         1 3N6      -0.047100
     12 C14         -1.2040     1.8540    -0.5710 ca         1 3N6      -0.119300
     13 C15         -2.2950     1.1930    -1.1720 ca         1 3N6      -0.020000
     14 C16         -3.6110     1.5960    -0.8940 ca         1 3N6      -0.088400
     15 Br17        -5.0640     0.6130    -1.6720 br         1 3N6      -0.084600
     16 C18         -3.8480     2.6860    -0.0340 ca         1 3N6       0.203100
     17 O19         -5.1270     3.0800     0.2420 oh         1 3N6      -0.508100
     18 C20         -2.7580     3.3650     0.5470 ca         1 3N6      -0.088400
     19 Br21        -3.0410     4.8480     1.7330 br         1 3N6      -0.084600
     20 C22         -1.4420     2.9460     0.2840 ca         1 3N6      -0.020000
     21 N23         -0.3850    -0.6810     0.5640 ns         1 3N6      -0.515900
     22 C24         -1.3930    -0.5350     1.4880 c          1 3N6       0.665100
     23 O25         -1.3480     0.3290     2.3510 o          1 3N6      -0.641100
     24 N26         -2.4860    -1.4160     1.3640 n          1 3N6      -0.413800
     25 C27         -3.7410    -1.0850     2.1110 c6         1 3N6       0.102000
     26 C28         -4.8000    -2.2040     2.1860 c6         1 3N6      -0.104900
     27 C29         -5.0280    -2.8320     0.8040 c6         1 3N6       0.132700
     28 C30         -3.7090    -3.4060     0.2660 c6         1 3N6      -0.104900
     29 C31         -2.6290    -2.3070     0.1640 c6         1 3N6       0.102000
     30 N32         -6.1630    -3.7950     0.7610 n          1 3N6      -0.407800
     31 C33         -7.2720    -3.3700    -0.1380 c6         1 3N6       0.160300
     32 C34         -8.4550    -4.3370    -0.2060 ca         1 3N6      -0.150300
     33 C35         -9.5650    -4.0480    -1.0210 ca         1 3N6      -0.064000
     34 C36        -10.6490    -4.9430    -1.0780 ca         1 3N6      -0.141000
     35 C37        -10.6260    -6.1270    -0.3210 ca         1 3N6      -0.070000
     36 C38         -9.5170    -6.4160     0.4930 ca         1 3N6      -0.160000
     37 C39         -8.4370    -5.5190     0.5460 ca         1 3N6      -0.003000
     38 N40         -7.3190    -5.7830     1.3500 ns         1 3N6      -0.149000
     39 C41         -6.1930    -5.0030     1.5020 c          1 3N6       0.611000
     40 O42         -5.2840    -5.3530     2.2410 o          1 3N6      -0.582000
     41 C43          5.5380     0.7370     0.4550 c          1 3N6       0.600100
     42 O44          5.2110     1.6430     1.2170 o          1 3N6      -0.605100
     43 N45          6.8970     0.3500     0.3530 n          1 3N6      -0.405800
     44 C46          7.9160     1.0550     1.1950 c6         1 3N6       0.086000
     45 C47          9.3920     0.8030     0.7870 c6         1 3N6       0.190300
     46 N48          9.6770    -0.6470     0.6230 nh         1 3N6      -0.801400
     47 C49          8.7610    -1.2800    -0.3620 c6         1 3N6       0.190300
     48 C50          7.2690    -1.0640     0.0140 c6         1 3N6       0.086000
     49 C51         10.9860    -1.1360     0.8260 ca         1 3N6       0.358000
     50 C52         11.6730    -1.8500    -0.1640 ca         1 3N6      -0.240000
     51 C53         12.9690    -2.3070     0.1020 ca         1 3N6       0.365900
     52 N54         13.5960    -2.0940     1.2790 nb         1 3N6      -0.690000
     53 C55         12.9300    -1.4060     2.2300 ca         1 3N6       0.365900
     54 C56         11.6340    -0.9130     2.0440 ca         1 3N6      -0.240000
     55 HN1          4.6610    -0.9140    -7.0220 hn         1 3N6       0.392500
     56 HN1A         3.1300    -1.1440    -7.4770 hn         1 3N6       0.392500
     57 H2           2.2890    -0.5730    -5.3000 h1         1 3N6       0.027700
     58 H2A          3.4300    -1.9430    -5.2830 h1         1 3N6       0.027700
     59 H3           5.2850    -0.3780    -4.6310 hc         1 3N6       0.045200
     60 H3A          4.1540     0.9780    -4.6490 hc         1 3N6       0.045200
     61 H4           2.8240    -0.1100    -2.8240 hc         1 3N6       0.046200
     62 H4A          3.9600    -1.4600    -2.7930 hc         1 3N6       0.046200
     63 H5           5.8170     0.1620    -2.2140 hc         1 3N6       0.050700
     64 H5A          4.6440     1.4640    -2.1440 hc         1 3N6       0.050700
     65 H6           4.5800    -1.0190    -0.3340 h1         1 3N6       0.093700
     66 HN8          2.9680     1.4300     0.1900 hn         1 3N6       0.337500
     67 H11          0.8660     0.8790     1.2330 h1         1 3N6       0.102700
     68 H13          0.9220     2.1760    -0.8260 hc         1 3N6       0.058200
     69 H13A         0.2820     0.8480    -1.7690 hc         1 3N6       0.058200
     70 H15         -2.1210     0.3440    -1.8280 ha         1 3N6       0.129500
     71 HO19        -5.0780     3.8490     0.8500 ho         1 3N6       0.486000
     72 H22         -0.6090     3.4570     0.7610 ha         1 3N6       0.129500
     73 HN23        -0.4570    -1.4670    -0.0680 hn         1 3N6       0.329500
     74 H27         -3.4870    -0.7850     3.1380 h1         1 3N6       0.048700
     75 H27A        -4.1950    -0.2070     1.6280 h1         1 3N6       0.048700
     76 H28         -4.4650    -2.9650     2.9020 hc         1 3N6       0.068200
     77 H28A        -5.7410    -1.7950     2.5780 hc         1 3N6       0.068200
     78 H29         -5.2900    -1.9990     0.1350 h1         1 3N6       0.044700
     79 H30         -3.3450    -4.2040     0.9240 hc         1 3N6       0.068200
     80 H30A        -3.8680    -3.8590    -0.7220 hc         1 3N6       0.068200
     81 H31         -2.8620    -1.6720    -0.7020 h1         1 3N6       0.048700
     82 H31A        -1.6720    -2.8040    -0.0460 h1         1 3N6       0.048700
     83 H33         -7.6420    -2.3910     0.1970 h1         1 3N6       0.049700
     84 H33A        -6.8720    -3.2380    -1.1530 h1         1 3N6       0.049700
     85 H35         -9.5890    -3.1330    -1.6100 ha         1 3N6       0.114000
     86 H36        -11.5060    -4.7180    -1.7090 ha         1 3N6       0.118000
     87 H37        -11.4650    -6.8190    -0.3660 ha         1 3N6       0.116000
     88 H38         -9.5000    -7.3330     1.0780 ha         1 3N6       0.119000
     89 HN40        -7.3390    -6.6440     1.8790 hn         1 3N6       0.165000
     90 H46          7.7330     2.1380     1.1660 h1         1 3N6       0.068700
     91 H46A         7.7850     0.7340     2.2380 h1         1 3N6       0.068700
     92 H47          9.5920     1.3270    -0.1590 h1         1 3N6       0.052450
     93 H47A        10.0470     1.2520     1.5480 h1         1 3N6       0.052450
     94 H49          8.9400    -0.8590    -1.3620 h1         1 3N6       0.052450
     95 H49A         8.9470    -2.3630    -0.4220 h1         1 3N6       0.052450
     96 H50          7.0400    -1.6950     0.8850 h1         1 3N6       0.068700
     97 H50A         6.6620    -1.4390    -0.8200 h1         1 3N6       0.068700
     98 H52         11.2290    -2.0440    -1.1330 ha         1 3N6       0.118500
     99 H53         13.5260    -2.8610    -0.6520 h4         1 3N6       0.014600
    100 H55         13.4530    -1.2490     3.1730 h4         1 3N6       0.014600
    101 H56         11.1400    -0.3760     2.8470 ha         1 3N6       0.118500
@<TRIPOS>BOND
     1     1     2 1   
     2     1    55 1   
     3     1    56 1   
     4     2     3 1   
     5     2    57 1   
     6     2    58 1   
     7     3     4 1   
     8     3    59 1   
     9     3    60 1   
    10     4     5 1   
    11     4    61 1   
    12     4    62 1   
    13     5     6 1   
    14     5    63 1   
    15     5    64 1   
    16     6     7 1   
    17     6    41 1   
    18     6    65 1   
    19     7     8 1   
    20     7    66 1   
    21     8     9 2   
    22     8    10 1   
    23    10    11 1   
    24    10    21 1   
    25    10    67 1   
    26    11    12 1   
    27    11    68 1   
    28    11    69 1   
    29    12    13 ar  
    30    12    20 ar  
    31    13    14 ar  
    32    13    70 1   
    33    14    15 1   
    34    14    16 ar  
    35    16    17 1   
    36    16    18 ar  
    37    17    71 1   
    38    18    19 1   
    39    18    20 ar  
    40    20    72 1   
    41    21    22 1   
    42    21    73 1   
    43    22    23 2   
    44    22    24 1   
    45    24    25 1   
    46    24    29 1   
    47    25    26 1   
    48    25    74 1   
    49    25    75 1   
    50    26    27 1   
    51    26    76 1   
    52    26    77 1   
    53    27    28 1   
    54    27    30 1   
    55    27    78 1   
    56    28    29 1   
    57    28    79 1   
    58    28    80 1   
    59    29    81 1   
    60    29    82 1   
    61    30    31 1   
    62    30    39 1   
    63    31    32 1   
    64    31    83 1   
    65    31    84 1   
    66    32    33 ar  
    67    32    37 ar  
    68    33    34 ar  
    69    33    85 1   
    70    34    35 ar  
    71    34    86 1   
    72    35    36 ar  
    73    35    87 1   
    74    36    37 ar  
    75    36    88 1   
    76    37    38 1   
    77    38    39 1   
    78    38    89 1   
    79    39    40 2   
    80    41    42 2   
    81    41    43 1   
    82    43    44 1   
    83    43    48 1   
    84    44    45 1   
    85    44    90 1   
    86    44    91 1   
    87    45    46 1   
    88    45    92 1   
    89    45    93 1   
    90    46    47 1   
    91    46    49 1   
    92    47    48 1   
    93    47    94 1   
    94    47    95 1   
    95    48    96 1   
    96    48    97 1   
    97    49    50 ar  
    98    49    54 ar  
    99    50    51 ar  
   100    50    98 1   
   101    51    52 ar  
   102    51    99 1   
   103    52    53 ar  
   104    53    54 ar  
   105    53   100 1   
   106    54   101 1   
@<TRIPOS>SUBSTRUCTURE
     1 3N6         1 TEMP              0 ****  ****    0 ROOT
