@<TRIPOS>MOLECULE
3N7
   44    48     1     0     0
SMALL
abcg2


@<TRIPOS>ATOM
      1 C1           0.9670     4.7880    -0.0820 c3         1 3N7      -0.149400
      2 C2           0.4860     3.3720    -0.0500 ca         1 3N7       0.185300
      3 C3           1.3860     2.3170    -0.0540 ca         1 3N7      -0.304000
      4 C4           0.8350     1.0330    -0.0020 ca         1 3N7       0.421900
      5 N5           1.5540    -0.1200     0.0230 nu         1 3N7      -0.892800
      6 C6           2.9210    -0.3200    -0.0150 cc         1 3N7       0.517900
      7 C7           3.5410    -1.5770     0.1470 cc         1 3N7      -0.266000
      8 C8           4.8880    -1.3120     0.0250 cd         1 3N7      -0.070300
      9 N9           4.9870     0.0100    -0.1870 na         1 3N7      -0.009200
     10 N10          3.8010     0.6360    -0.2200 nd         1 3N7      -0.560800
     11 C12          6.0300    -2.2320     0.0950 cx         1 3N7      -0.076400
     12 C13          7.2010    -2.0860    -0.8420 cx         1 3N7      -0.121400
     13 C14          7.3700    -1.7780     0.6070 cx         1 3N7      -0.121400
     14 N15         -0.4870     0.8450     0.0360 nb         1 3N7      -0.321000
     15 C16         -1.2510     1.9240     0.0240 ca         1 3N7       0.423900
     16 N17         -2.6060     1.7900     0.0570 nu         1 3N7      -0.932900
     17 C18         -3.4270     0.6640     0.0580 ca         1 3N7       0.286000
     18 C19         -4.8210     0.9400     0.1500 ca         1 3N7      -0.122000
     19 C20         -5.7740    -0.0450     0.1520 ca         1 3N7      -0.100000
     20 C21         -5.3240    -1.3670     0.0610 ca         1 3N7      -0.069200
     21 N22         -5.9710    -2.5570     0.0350 na         1 3N7      -0.060400
     22 N24         -5.1300    -3.5840    -0.0630 nc         1 3N7      -0.517100
     23 C25         -3.9190    -3.0820    -0.1020 cd         1 3N7       0.345800
     24 C26         -3.9570    -1.6630    -0.0280 ca         1 3N7      -0.202900
     25 C27         -2.9900    -0.6450    -0.0300 ca         1 3N7      -0.074000
     26 N28         -0.8300     3.1910    -0.0140 nb         1 3N7      -0.284000
     27 H1           0.5310     5.3200    -0.9280 hc         1 3N7       0.053700
     28 H1A          0.6550     5.3130     0.8220 hc         1 3N7       0.053700
     29 H1B          2.0510     4.8470    -0.1560 hc         1 3N7       0.053700
     30 H3           2.4500     2.4810    -0.0910 ha         1 3N7       0.159000
     31 HN5          0.9940    -0.9560     0.0980 hn         1 3N7       0.513000
     32 H7           3.0740    -2.5310     0.3310 ha         1 3N7       0.149000
     33 H12          5.7400    -3.2450     0.3430 hc         1 3N7       0.099700
     34 H13          7.6400    -2.9930    -1.2340 hc         1 3N7       0.076700
     35 H13A         7.1830    -1.2610    -1.5430 hc         1 3N7       0.076700
     36 H14          7.4780    -0.7420     0.9050 hc         1 3N7       0.076700
     37 H14A         7.9250    -2.4730     1.2230 hc         1 3N7       0.076700
     38 HN17        -3.0850     2.6770     0.0680 hn         1 3N7       0.509000
     39 H19         -5.1410     1.9730     0.2230 ha         1 3N7       0.112000
     40 H20         -6.8250     0.2010     0.2230 ha         1 3N7       0.120000
     41 H25         -3.0580    -3.7280    -0.1820 h4         1 3N7       0.047800
     42 H27         -1.9410    -0.8780    -0.0990 ha         1 3N7       0.152000
     43 HN9          5.8230     0.5540    -0.3280 hn         1 3N7       0.373000
     44 HN22        -6.9630    -2.7240     0.0790 hn         1 3N7       0.374000
@<TRIPOS>BOND
     1     1     2 1   
     2     1    27 1   
     3     1    28 1   
     4     1    29 1   
     5     2     3 ar  
     6     2    26 ar  
     7     3     4 ar  
     8     3    30 1   
     9     4     5 1   
    10     4    14 ar  
    11     5     6 1   
    12     5    31 1   
    13     6     7 1   
    14     6    10 2   
    15     7     8 2   
    16     7    32 1   
    17     8     9 1   
    18     8    11 1   
    19     9    10 1   
    20     9    43 1   
    21    11    12 1   
    22    11    13 1   
    23    11    33 1   
    24    12    13 1   
    25    12    34 1   
    26    12    35 1   
    27    13    36 1   
    28    13    37 1   
    29    14    15 ar  
    30    15    16 1   
    31    15    26 ar  
    32    16    17 1   
    33    16    38 1   
    34    17    18 ar  
    35    17    25 ar  
    36    18    19 ar  
    37    18    39 1   
    38    19    20 ar  
    39    19    40 1   
    40    20    21 1   
    41    20    24 ar  
    42    21    22 1   
    43    21    44 1   
    44    22    23 2   
    45    23    24 1   
    46    23    41 1   
    47    24    25 ar  
    48    25    42 1   
@<TRIPOS>SUBSTRUCTURE
     1 3N7         1 TEMP              0 ****  ****    0 ROOT
