@<TRIPOS>MOLECULE
3N7
   44    48     1     0     0
SMALL
No Charge or Current Charge


@<TRIPOS>ATOM
      1 C1           0.8000     5.0680    -0.2990 c3         1 3N7      -0.149400
      2 C2           0.3990     3.6130    -0.1470 ca         1 3N7       0.185300
      3 C3           1.3530     2.5980     0.0020 ca         1 3N7      -0.304000
      4 C4           0.8840     1.2860     0.1450 ca         1 3N7       0.421900
      5 N5           1.7020     0.1870     0.3300 nu         1 3N7      -0.892800
      6 C6           3.0210    -0.0730     0.1240 cc         1 3N7       0.517900
      7 C7           3.5580    -1.3120     0.4610 cc         1 3N7      -0.266000
      8 C8           4.8760    -1.2740     0.1220 cd         1 3N7      -0.070300
      9 N9           5.0500     0.0140    -0.4150 na         1 3N7      -0.009200
     10 N10          3.8690     0.7640    -0.4130 nd         1 3N7      -0.560800
     11 C12          5.8640    -2.3700     0.2960 cx         1 3N7      -0.076400
     12 C13          6.9610    -2.5930    -0.7200 cx         1 3N7      -0.121400
     13 C14          7.3000    -2.0680     0.6550 cx         1 3N7      -0.121400
     14 N15         -0.4250     1.0080     0.1620 nb         1 3N7      -0.321000
     15 C16         -1.2590     2.0470     0.0020 ca         1 3N7       0.423900
     16 N17         -2.6250     1.8140     0.0380 nu         1 3N7      -0.932900
     17 C18         -3.4320     0.6660     0.0570 ca         1 3N7       0.286000
     18 C19         -4.7430     0.7760     0.5880 ca         1 3N7      -0.122000
     19 C20         -5.6120    -0.3380     0.6230 ca         1 3N7      -0.100000
     20 C21         -5.1350    -1.5490     0.1090 ca         1 3N7      -0.069200
     21 N22         -5.7600    -2.7780     0.0080 na         1 3N7      -0.060400
     22 N24         -4.8990    -3.7140    -0.5990 nc         1 3N7      -0.517100
     23 C25         -3.7680    -3.0310    -0.8510 cd         1 3N7       0.345800
     24 C26         -3.8890    -1.6610    -0.4130 ca         1 3N7      -0.202900
     25 C27         -2.9990    -0.5780    -0.4670 ca         1 3N7      -0.074000
     26 N28         -0.9180     3.3360    -0.1420 nb         1 3N7      -0.284000
     27 H1           0.1290     5.5980    -0.9860 hc         1 3N7       0.053700
     28 H1A          0.7680     5.5840     0.6680 hc         1 3N7       0.053700
     29 H1B          1.8180     5.1610    -0.6960 hc         1 3N7       0.053700
     30 H3           2.4110     2.8310     0.0180 ha         1 3N7       0.159000
     31 HN5          1.1880    -0.6460     0.5990 hn         1 3N7       0.513000
     32 H7           3.0160    -2.1370     0.9080 ha         1 3N7       0.149000
     33 H12          5.4320    -3.2640     0.7440 hc         1 3N7       0.099700
     34 H13          7.2330    -3.6190    -0.9520 hc         1 3N7       0.076700
     35 H13A         7.0320    -1.9040    -1.5590 hc         1 3N7       0.076700
     36 H14          7.6010    -1.0260     0.7420 hc         1 3N7       0.076700
     37 H14A         7.8010    -2.7420     1.3460 hc         1 3N7       0.076700
     38 HN17        -3.1500     2.6820     0.1370 hn         1 3N7       0.509000
     39 H19         -5.0880     1.7280     0.9810 ha         1 3N7       0.112000
     40 H20         -6.6160    -0.2550     1.0340 ha         1 3N7       0.120000
     41 H25         -2.9360    -3.5370    -1.3250 h4         1 3N7       0.047800
     42 H27         -2.0180    -0.6960    -0.9160 ha         1 3N7       0.152000
     43 HN9          5.9230     0.3950    -0.7780 hn         1 3N7       0.373000
     44 HN22        -6.7040    -3.0150     0.3130 hn         1 3N7       0.374000
@<TRIPOS>BOND
     1     1     2 1   
     2     1    27 1   
     3     1    28 1   
     4     1    29 1   
     5     2     3 ar  
     6     2    26 ar  
     7     3     4 ar  
     8     3    30 1   
     9     4     5 1   
    10     4    14 ar  
    11     5     6 1   
    12     5    31 1   
    13     6     7 1   
    14     6    10 2   
    15     7     8 2   
    16     7    32 1   
    17     8     9 1   
    18     8    11 1   
    19     9    10 1   
    20     9    43 1   
    21    11    12 1   
    22    11    13 1   
    23    11    33 1   
    24    12    13 1   
    25    12    34 1   
    26    12    35 1   
    27    13    36 1   
    28    13    37 1   
    29    14    15 ar  
    30    15    16 1   
    31    15    26 ar  
    32    16    17 1   
    33    16    38 1   
    34    17    18 ar  
    35    17    25 ar  
    36    18    19 ar  
    37    18    39 1   
    38    19    20 ar  
    39    19    40 1   
    40    20    21 1   
    41    20    24 ar  
    42    21    22 1   
    43    21    44 1   
    44    22    23 2   
    45    23    24 1   
    46    23    41 1   
    47    24    25 ar  
    48    25    42 1   
@<TRIPOS>SUBSTRUCTURE
     1 3N7         1 TEMP              0 ****  ****    0 ROOT
