@<TRIPOS>MOLECULE
3N8
   14    14     1     0     0
SMALL
bcc


@<TRIPOS>ATOM
      1 C1          -1.1580    -0.7340     0.1600 ca         1 3N8       0.106100
      2 C2          -0.8010     0.6210     0.2240 ca         1 3N8       0.073100
      3 C3           0.5320     0.9950     0.1460 ca         1 3N8      -0.225000
      4 C4           1.4960     0.0130     0.0030 ca         1 3N8       0.134900
      5 C5           1.1770    -1.3250    -0.0650 ca         1 3N8      -0.164000
      6 C6          -0.1640    -1.6870     0.0170 ca         1 3N8      -0.115000
      7 O7          -2.4470    -1.1320     0.2340 oh         1 3N8      -0.494100
      8 O8          -1.8150     1.5000     0.3620 oh         1 3N8      -0.515100
      9 F9           2.7860     0.3920    -0.0710 f          1 3N8      -0.143900
     10 H1           0.8170     2.0390     0.1940 ha         1 3N8       0.150000
     11 H2           1.9460    -2.0760    -0.1770 ha         1 3N8       0.155000
     12 H3          -0.4410    -2.7320    -0.0330 ha         1 3N8       0.153000
     13 H4          -3.0320    -0.3720     0.3380 ho         1 3N8       0.444000
     14 H5          -1.4890     2.4060     0.3890 ho         1 3N8       0.440000
@<TRIPOS>BOND
     1     1     2 ar  
     2     1     6 ar  
     3     1     7 1   
     4     2     3 ar  
     5     2     8 1   
     6     3     4 ar  
     7     3    10 1   
     8     4     5 ar  
     9     4     9 1   
    10     5     6 ar  
    11     5    11 1   
    12     6    12 1   
    13     7    13 1   
    14     8    14 1   
@<TRIPOS>SUBSTRUCTURE
     1 3N8         1 TEMP              0 ****  ****    0 ROOT
