@<TRIPOS>MOLECULE
3N8
   14    14     1     0     0
SMALL
No Charge or Current Charge


@<TRIPOS>ATOM
      1 C1          -1.1740    -0.7690     0.1590 ca         1 3N8       0.106100
      2 C2          -0.8410     0.6020     0.2250 ca         1 3N8       0.073100
      3 C3           0.5030     1.0020     0.1460 ca         1 3N8      -0.207000
      4 C4           1.5090     0.0320     0.0020 ca         1 3N8       0.170000
      5 C5           1.1820    -1.3330    -0.0640 ca         1 3N8      -0.146000
      6 C6          -0.1650    -1.7360     0.0140 ca         1 3N8      -0.097000
      7 O7          -2.4830    -1.1480     0.2360 oh         1 3N8      -0.533100
      8 O8          -1.8280     1.5400     0.3660 oh         1 3N8      -0.554100
      9 F9           2.8020     0.4150    -0.0740 f          1 3N8      -0.179000
     10 H1           0.7780     2.0520     0.1960 ha         1 3N8       0.132000
     11 H2           1.9690    -2.0740    -0.1760 ha         1 3N8       0.137000
     12 H3          -0.4240    -2.7910    -0.0360 ha         1 3N8       0.135000
     13 H4          -3.0030    -0.3180     0.3330 ho         1 3N8       0.483000
     14 H5          -1.4170     2.4330     0.3940 ho         1 3N8       0.479000
@<TRIPOS>BOND
     1     1     2 ar  
     2     1     6 ar  
     3     1     7 1   
     4     2     3 ar  
     5     2     8 1   
     6     3     4 ar  
     7     3    10 1   
     8     4     5 ar  
     9     4     9 1   
    10     5     6 ar  
    11     5    11 1   
    12     6    12 1   
    13     7    13 1   
    14     8    14 1   
@<TRIPOS>SUBSTRUCTURE
     1 3N8         1 TEMP              0 ****  ****    0 ROOT
