@<TRIPOS>MOLECULE
3N9
   16    16     1     0     0
SMALL
No Charge or Current Charge


@<TRIPOS>ATOM
      1 C1          -0.5820     1.3810    -0.2040 c          1 3N9       0.573300
      2 C2          -0.7570    -0.1530     0.1770 c6         1 3N9       0.328200
      3 C3           0.5190    -0.9710     0.0090 c2         1 3N9      -0.329200
      4 C4           1.7270    -0.3840    -0.0700 ce         1 3N9       0.187500
      5 C5           1.8890     1.0690    -0.0940 ce         1 3N9      -0.157000
      6 C6           0.8150     1.9070    -0.1760 cf         1 3N9      -0.247200
      7 O2          -1.1210    -0.2600     1.5510 oh         1 3N9      -0.627000
      8 O3          -1.8660    -0.7400    -0.5510 os         1 3N9      -0.234000
      9 O4          -2.2310    -2.0780     0.0030 oh         1 3N9      -0.439000
     10 O1          -1.5110     2.0900    -0.5790 o          1 3N9      -0.440100
     11 F4           2.8740    -1.0930    -0.1670 f          1 3N9      -0.160500
     12 H1           0.4310    -2.0550     0.0110 ha         1 3N9       0.211000
     13 H2           2.9050     1.4680    -0.1070 ha         1 3N9       0.208000
     14 H3           0.9490     2.9830    -0.2790 ha         1 3N9       0.216000
     15 H4          -1.7050    -1.0510     1.5430 ho         1 3N9       0.466000
     16 H5          -1.9460    -2.6720    -0.7300 ho         1 3N9       0.445000
@<TRIPOS>BOND
     1     1     2 1   
     2     1     6 1   
     3     1    10 2   
     4     2     3 1   
     5     2     7 1   
     6     2     8 1   
     7     3     4 2   
     8     3    12 1   
     9     4     5 1   
    10     4    11 1   
    11     5     6 2   
    12     5    13 1   
    13     6    14 1   
    14     7    15 1   
    15     8     9 1   
    16     9    16 1   
@<TRIPOS>SUBSTRUCTURE
     1 3N9         1 TEMP              0 ****  ****    0 ROOT
