@<TRIPOS>MOLECULE
3N9
   16    16     1     0     0
SMALL
abcg2


@<TRIPOS>ATOM
      1 C1          -0.5830     1.3420    -0.0240 c          1 3N9       0.573300
      2 C2          -0.8070    -0.1560     0.3110 c6         1 3N9       0.328200
      3 C3           0.4310    -1.0040     0.2950 c2         1 3N9      -0.329200
      4 C4           1.6050    -0.4600     0.0070 ce         1 3N9       0.187500
      5 C5           1.7990     0.9400    -0.3160 ce         1 3N9      -0.157000
      6 C6           0.7690     1.7940    -0.3320 cf         1 3N9      -0.247200
      7 O2          -1.4090    -0.1660     1.5540 oh         1 3N9      -0.627000
      8 O3          -1.6950    -0.5350    -0.7230 os         1 3N9      -0.234000
      9 O4          -2.0560    -1.8840    -0.5520 oh         1 3N9      -0.439000
     10 O1          -1.5380     2.0820    -0.0110 o          1 3N9      -0.440100
     11 F4           2.7230    -1.1960     0.0030 f          1 3N9      -0.160500
     12 H1           0.3540    -2.0560     0.5410 ha         1 3N9       0.211000
     13 H2           2.8030     1.2780    -0.5420 ha         1 3N9       0.208000
     14 H3           0.9090     2.8410    -0.5650 ha         1 3N9       0.216000
     15 H4          -1.3670    -1.0500     1.9390 ho         1 3N9       0.466000
     16 H5          -1.5500    -2.3290    -1.2480 ho         1 3N9       0.445000
@<TRIPOS>BOND
     1     1     2 1   
     2     1     6 1   
     3     1    10 2   
     4     2     3 1   
     5     2     7 1   
     6     2     8 1   
     7     3     4 2   
     8     3    12 1   
     9     4     5 1   
    10     4    11 1   
    11     5     6 2   
    12     5    13 1   
    13     6    14 1   
    14     7    15 1   
    15     8     9 1   
    16     9    16 1   
@<TRIPOS>SUBSTRUCTURE
     1 3N9         1 TEMP              0 ****  ****    0 ROOT
