@<TRIPOS>MOLECULE
3NA
   36    39     1     0     0
SMALL
abcg2


@<TRIPOS>ATOM
      1 C2           3.8600     1.7530    -1.0340 ca         1 3NA      -0.086000
      2 C3           1.6770     2.2140     0.7160 ca         1 3NA      -0.083000
      3 C4           3.1600     0.6930    -0.4580 ca         1 3NA      -0.030200
      4 C5           3.4480     3.0350    -0.7220 ca         1 3NA      -0.125000
      5 C6           2.3650     3.2660     0.1430 ca         1 3NA      -0.146000
      6 C7           2.0780     0.9070     0.4220 ca         1 3NA      -0.085800
      7 C11          1.6140    -0.3850     0.8250 cc         1 3NA      -0.240400
      8 C13         -0.8600    -0.4760     1.0700 cc         1 3NA       0.420200
      9 S14         -0.9370    -0.4240    -0.6770 ss         1 3NA       0.157800
     10 N15          3.3250    -0.6550    -0.6050 na         1 3NA      -0.009700
     11 C16          2.4130    -1.2910     0.1810 cd         1 3NA      -0.103100
     12 C17          0.4670    -0.6810     1.7280 c3         1 3NA      -0.012500
     13 C20          4.4060    -1.2950    -1.3080 c3         1 3NA      -0.099400
     14 C24         -3.0180    -0.2350     0.8060 ca         1 3NA       0.109400
     15 C25         -4.9340     0.0170    -1.2100 ca         1 3NA      -0.185000
     16 C26         -4.3620    -0.0970     1.1410 ca         1 3NA       0.160000
     17 C27         -2.6480    -0.2480    -0.5470 ca         1 3NA      -0.274000
     18 C28         -3.6050    -0.1190    -1.5370 ca         1 3NA       0.227000
     19 C29         -5.2920     0.0250     0.1340 ca         1 3NA       0.141000
     20 C32          5.7240    -1.3820    -0.5030 c          1 3NA       0.710000
     21 O33          5.7180    -0.9450     0.6570 o          1 3NA      -0.705000
     22 O34          6.6680    -1.9040    -1.1270 o          1 3NA      -0.705000
     23 N36         -1.9820    -0.3630     1.6900 nd         1 3NA      -0.551100
     24 H2           4.6950     1.5900    -1.7030 ha         1 3NA       0.123000
     25 H3           0.8410     2.4000     1.3800 ha         1 3NA       0.098000
     26 H5           3.9720     3.8790    -1.1520 ha         1 3NA       0.095000
     27 H6           2.0690     4.2840     0.3600 ha         1 3NA       0.091000
     28 H16          2.3840    -2.3690     0.2230 h4         1 3NA       0.208000
     29 H171         0.5120    -1.7200     2.0690 hc         1 3NA       0.071700
     30 H172         0.4920    -0.0620     2.6290 hc         1 3NA       0.071700
     31 H201         4.5850    -0.7670    -2.2470 h1         1 3NA       0.043200
     32 H202         4.0840    -2.3010    -1.5830 h1         1 3NA       0.043200
     33 H25         -5.6910     0.1160    -1.9760 ha         1 3NA       0.145000
     34 F19         -3.2220    -0.1300    -2.8140 f          1 3NA      -0.162000
     35 F22         -4.7400    -0.0850     2.4180 f          1 3NA      -0.145000
     36 F23         -6.5800     0.1560     0.4590 f          1 3NA      -0.166000
@<TRIPOS>BOND
     1     1     3 ar  
     2     1     4 ar  
     3     1    24 1   
     4     2     5 ar  
     5     2     6 ar  
     6     2    25 1   
     7     3     6 ar  
     8     3    10 1   
     9     4     5 ar  
    10     4    26 1   
    11     5    27 1   
    12     6     7 1   
    13     7    11 2   
    14     7    12 1   
    15     8     9 1   
    16     8    12 1   
    17     8    23 2   
    18     9    17 1   
    19    10    11 1   
    20    10    13 1   
    21    11    28 1   
    22    12    29 1   
    23    12    30 1   
    24    13    20 1   
    25    13    31 1   
    26    13    32 1   
    27    14    16 ar  
    28    14    17 ar  
    29    14    23 1   
    30    15    18 ar  
    31    15    19 ar  
    32    15    33 1   
    33    16    19 ar  
    34    16    35 1   
    35    17    18 ar  
    36    18    34 1   
    37    19    36 1   
    38    20    21 1   
    39    20    22 1   
@<TRIPOS>SUBSTRUCTURE
     1 3NA         1 TEMP              0 ****  ****    0 ROOT
