@<TRIPOS>MOLECULE
3NA
   36    39     1     0     0
SMALL
No Charge or Current Charge


@<TRIPOS>ATOM
      1 C2           3.7190     1.6990    -1.0140 ca         1 3NA      -0.086000
      2 C3           1.3430     1.8840     0.5280 ca         1 3NA      -0.083000
      3 C4           3.1400     0.5640    -0.4210 ca         1 3NA      -0.030200
      4 C5           3.0860     2.9460    -0.8260 ca         1 3NA      -0.125000
      5 C6           1.9020     3.0380    -0.0580 ca         1 3NA      -0.146000
      6 C7           1.9950     0.6590     0.3220 ca         1 3NA      -0.085800
      7 C11          1.6550    -0.6580     0.7860 cc         1 3NA      -0.240400
      8 C13         -0.8780    -0.7080     0.9850 cc         1 3NA       0.420200
      9 S14         -1.1130    -0.9950    -0.7550 ss         1 3NA       0.157800
     10 N15          3.5690    -0.7540    -0.4610 na         1 3NA      -0.009700
     11 C16          2.6410    -1.5070     0.2890 cd         1 3NA      -0.103100
     12 C17          0.4520    -1.0330     1.6190 c3         1 3NA      -0.012500
     13 C20          4.7510    -1.2330    -1.1960 c3         1 3NA      -0.099400
     14 C24         -2.9710    -0.0200     0.8140 ca         1 3NA       0.109400
     15 C25         -4.9800     0.2760    -1.1390 ca         1 3NA      -0.185000
     16 C26         -4.2330     0.4960     1.1820 ca         1 3NA       0.160000
     17 C27         -2.7380    -0.3750    -0.5020 ca         1 3NA      -0.274000
     18 C28         -3.7220    -0.2360    -1.4910 ca         1 3NA       0.227000
     19 C29         -5.2340     0.6410     0.1970 ca         1 3NA       0.141000
     20 C32          6.0550    -1.0590    -0.4040 c          1 3NA       0.710000
     21 O33          6.3150    -1.8780     0.4660 o          1 3NA      -0.705000
     22 O34          6.7890    -0.1250    -0.6950 o          1 3NA      -0.705000
     23 N36         -1.9050    -0.2090     1.6930 nd         1 3NA      -0.551100
     24 H2           4.6300     1.6260    -1.6020 ha         1 3NA       0.123000
     25 H3           0.4340     1.9460     1.1220 ha         1 3NA       0.098000
     26 H5           3.5110     3.8410    -1.2740 ha         1 3NA       0.095000
     27 H6           1.4210     4.0030     0.0820 ha         1 3NA       0.091000
     28 H16          2.7490    -2.5810     0.4060 h4         1 3NA       0.208000
     29 H171         0.4770    -2.1070     1.8400 hc         1 3NA       0.071700
     30 H172         0.5210    -0.5290     2.5900 hc         1 3NA       0.071700
     31 H201         4.8330    -0.6930    -2.1470 h1         1 3NA       0.043200
     32 H202         4.6230    -2.2980    -1.4210 h1         1 3NA       0.043200
     33 H25         -5.7530     0.3890    -1.8940 ha         1 3NA       0.145000
     34 F19         -3.4650    -0.5910    -2.7680 f          1 3NA      -0.162000
     35 F22         -4.4840     0.8510     2.4670 f          1 3NA      -0.145000
     36 F23         -6.4500     1.1340     0.5280 f          1 3NA      -0.166000
@<TRIPOS>BOND
     1     1     3 ar  
     2     1     4 ar  
     3     1    24 1   
     4     2     5 ar  
     5     2     6 ar  
     6     2    25 1   
     7     3     6 ar  
     8     3    10 1   
     9     4     5 ar  
    10     4    26 1   
    11     5    27 1   
    12     6     7 1   
    13     7    11 2   
    14     7    12 1   
    15     8     9 1   
    16     8    12 1   
    17     8    23 2   
    18     9    17 1   
    19    10    11 1   
    20    10    13 1   
    21    11    28 1   
    22    12    29 1   
    23    12    30 1   
    24    13    20 1   
    25    13    31 1   
    26    13    32 1   
    27    14    16 ar  
    28    14    17 ar  
    29    14    23 1   
    30    15    18 ar  
    31    15    19 ar  
    32    15    33 1   
    33    16    19 ar  
    34    16    35 1   
    35    17    18 ar  
    36    18    34 1   
    37    19    36 1   
    38    20    21 1   
    39    20    22 1   
@<TRIPOS>SUBSTRUCTURE
     1 3NA         1 TEMP              0 ****  ****    0 ROOT
