@<TRIPOS>MOLECULE
3NB
   38    38     1     0     0
SMALL
No Charge or Current Charge


@<TRIPOS>ATOM
      1 C16         -5.9050    -0.6220     0.0150 c3         1 3NB      -0.075400
      2 C18         -8.4470    -1.0200     0.0540 c3         1 3NB      -0.088100
      3 C17         -7.3090     0.0180     0.0720 c3         1 3NB      -0.075400
      4 C14         -3.3610    -0.2220    -0.0230 c3         1 3NB      -0.075400
      5 C13         -2.2200     0.8190    -0.0050 c3         1 3NB      -0.068400
      6 C15         -4.7650     0.4190     0.0340 c3         1 3NB      -0.075400
      7 C12         -0.8140     0.1700    -0.0620 c3         1 3NB      -0.173400
      8 C1           0.3830     1.1440    -0.0470 c          1 3NB       0.583700
      9 C2           1.7990     0.5870    -0.0980 ca         1 3NB      -0.136600
     10 C3           2.0590    -0.8070    -0.1620 ca         1 3NB      -0.129500
     11 C4           3.3810    -1.2900    -0.2080 ca         1 3NB       0.104600
     12 C5           4.4630    -0.3900    -0.1910 ca         1 3NB       0.042100
     13 C6           4.2180     0.9930    -0.1280 ca         1 3NB       0.104600
     14 C7           2.9010     1.4770    -0.0820 ca         1 3NB      -0.129500
     15 O8           5.2690     1.8620    -0.1120 oh         1 3NB      -0.542100
     16 O9           5.7490    -0.8670    -0.2360 oh         1 3NB      -0.553100
     17 O10          3.6250    -2.6370    -0.2700 oh         1 3NB      -0.542100
     18 O11          0.1940     2.3550     0.0060 o          1 3NB      -0.518100
     19 H1          -5.7850    -1.3030     0.8680 hc         1 3NB       0.035700
     20 H2          -5.8230    -1.2300    -0.8940 hc         1 3NB       0.035700
     21 H3          -9.4220    -0.5190     0.0960 hc         1 3NB       0.031700
     22 H4          -8.4100    -1.6210    -0.8630 hc         1 3NB       0.031700
     23 H5          -8.3710    -1.6950     0.9150 hc         1 3NB       0.031700
     24 H6          -7.3960     0.6260     0.9820 hc         1 3NB       0.037700
     25 H7          -7.4340     0.6990    -0.7790 hc         1 3NB       0.037700
     26 H8          -3.2790    -0.8300    -0.9330 hc         1 3NB       0.034700
     27 H9          -3.2410    -0.9030     0.8290 hc         1 3NB       0.034700
     28 H10         -2.3390     1.4990    -0.8570 hc         1 3NB       0.053700
     29 H11         -2.3010     1.4260     0.9060 hc         1 3NB       0.053700
     30 H12         -4.8850     1.1000    -0.8180 hc         1 3NB       0.040200
     31 H13         -4.8460     1.0270     0.9440 hc         1 3NB       0.040200
     32 H14         -0.6700    -0.5470     0.7540 hc         1 3NB       0.059700
     33 H15         -0.7060    -0.4770    -0.9400 hc         1 3NB       0.059700
     34 H16          1.2430    -1.5240    -0.1760 ha         1 3NB       0.136000
     35 H17          2.7410     2.5510    -0.0330 ha         1 3NB       0.136000
     36 H18          6.0810     1.3080    -0.1510 ho         1 3NB       0.481500
     37 H19          5.6820    -1.8500    -0.2770 ho         1 3NB       0.494000
     38 H20          2.7680    -3.1180    -0.2730 ho         1 3NB       0.481500
@<TRIPOS>BOND
     1     1     3 1   
     2     1     6 1   
     3     1    19 1   
     4     1    20 1   
     5     2     3 1   
     6     2    21 1   
     7     2    22 1   
     8     2    23 1   
     9     3    24 1   
    10     3    25 1   
    11     4     5 1   
    12     4     6 1   
    13     4    26 1   
    14     4    27 1   
    15     5     7 1   
    16     5    28 1   
    17     5    29 1   
    18     6    30 1   
    19     6    31 1   
    20     7     8 1   
    21     7    32 1   
    22     7    33 1   
    23     8     9 1   
    24     8    18 2   
    25     9    10 ar  
    26     9    14 ar  
    27    10    11 ar  
    28    10    34 1   
    29    11    12 ar  
    30    11    17 1   
    31    12    13 ar  
    32    12    16 1   
    33    13    14 ar  
    34    13    15 1   
    35    14    35 1   
    36    15    36 1   
    37    16    37 1   
    38    17    38 1   
@<TRIPOS>SUBSTRUCTURE
     1 3NB         1 TEMP              0 ****  ****    0 ROOT
