@<TRIPOS>MOLECULE
3NB
   38    38     1     0     0
SMALL
bcc


@<TRIPOS>ATOM
      1 C16         -5.8420    -0.6010     0.0250 c3         1 3NB      -0.075400
      2 C18         -8.3570    -0.9480     0.0530 c3         1 3NB      -0.088100
      3 C17         -7.2150     0.0590     0.0600 c3         1 3NB      -0.075400
      4 C14         -3.3190    -0.2530    -0.0130 c3         1 3NB      -0.075400
      5 C13         -2.1860     0.7660     0.0020 c3         1 3NB      -0.068400
      6 C15         -4.6950     0.4010     0.0340 c3         1 3NB      -0.075400
      7 C12         -0.8180     0.1060    -0.0660 c3         1 3NB      -0.173400
      8 C1           0.3370     1.0780    -0.0460 c          1 3NB       0.583700
      9 C2           1.7230     0.5390    -0.1010 ca         1 3NB      -0.136600
     10 C3           1.9780    -0.8310    -0.1700 ca         1 3NB      -0.147500
     11 C4           3.2830    -1.2920    -0.2180 ca         1 3NB       0.104600
     12 C5           4.3490    -0.3920    -0.1940 ca         1 3NB       0.042100
     13 C6           4.0930     0.9800    -0.1260 ca         1 3NB       0.104600
     14 C7           2.7870     1.4380    -0.0800 ca         1 3NB      -0.147500
     15 O8           5.0990     1.8760    -0.1030 oh         1 3NB      -0.503100
     16 O9           5.6380    -0.7810    -0.2350 oh         1 3NB      -0.514100
     17 O10          3.6240    -2.5970    -0.2860 oh         1 3NB      -0.503100
     18 O11          0.1480     2.2760     0.0140 o          1 3NB      -0.518100
     19 H1          -5.7420    -1.2760     0.8830 hc         1 3NB       0.035700
     20 H2          -5.7660    -1.2340    -0.8660 hc         1 3NB       0.035700
     21 H3          -9.3290    -0.4540     0.0740 hc         1 3NB       0.031700
     22 H4          -8.3230    -1.5730    -0.8410 hc         1 3NB       0.031700
     23 H5          -8.3020    -1.6090     0.9190 hc         1 3NB       0.031700
     24 H6          -7.2890     0.6930     0.9490 hc         1 3NB       0.037700
     25 H7          -7.3130     0.7320    -0.7980 hc         1 3NB       0.037700
     26 H8          -3.2420    -0.8750    -0.9120 hc         1 3NB       0.034700
     27 H9          -3.2100    -0.9350     0.8370 hc         1 3NB       0.034700
     28 H10         -2.3080     1.4520    -0.8400 hc         1 3NB       0.053700
     29 H11         -2.2600     1.3760     0.9060 hc         1 3NB       0.053700
     30 H12         -4.8010     1.0800    -0.8200 hc         1 3NB       0.040200
     31 H13         -4.7680     1.0290     0.9290 hc         1 3NB       0.040200
     32 H14         -0.6940    -0.5990     0.7630 hc         1 3NB       0.059700
     33 H15         -0.7410    -0.5050    -0.9730 hc         1 3NB       0.059700
     34 H16          1.1710    -1.5530    -0.1890 ha         1 3NB       0.154000
     35 H17          2.6060     2.5030    -0.0260 ha         1 3NB       0.154000
     36 H18          5.9550     1.4320    -0.1250 ho         1 3NB       0.442500
     37 H19          5.7130    -1.7420    -0.2660 ho         1 3NB       0.455000
     38 H20          2.8420    -3.1600    -0.2960 ho         1 3NB       0.442500
@<TRIPOS>BOND
     1     1     3 1   
     2     1     6 1   
     3     1    19 1   
     4     1    20 1   
     5     2     3 1   
     6     2    21 1   
     7     2    22 1   
     8     2    23 1   
     9     3    24 1   
    10     3    25 1   
    11     4     5 1   
    12     4     6 1   
    13     4    26 1   
    14     4    27 1   
    15     5     7 1   
    16     5    28 1   
    17     5    29 1   
    18     6    30 1   
    19     6    31 1   
    20     7     8 1   
    21     7    32 1   
    22     7    33 1   
    23     8     9 1   
    24     8    18 2   
    25     9    10 ar  
    26     9    14 ar  
    27    10    11 ar  
    28    10    34 1   
    29    11    12 ar  
    30    11    17 1   
    31    12    13 ar  
    32    12    16 1   
    33    13    14 ar  
    34    13    15 1   
    35    14    35 1   
    36    15    36 1   
    37    16    37 1   
    38    17    38 1   
@<TRIPOS>SUBSTRUCTURE
     1 3NB         1 TEMP              0 ****  ****    0 ROOT
