@<TRIPOS>MOLECULE
3NC
   40    42     1     0     0
SMALL
No Charge or Current Charge


@<TRIPOS>ATOM
      1 C1          -3.0400     0.5970    -0.2680 c6         1 3NC      -0.141700
      2 C2          -3.7370     1.0700     1.0380 c6         1 3NC      -0.060400
      3 C3          -4.4710    -0.0990     1.7450 c6         1 3NC      -0.093900
      4 C4          -5.4540    -0.8130     0.7800 c6         1 3NC       0.155500
      5 C5          -4.7250    -1.3260    -0.4910 c6         1 3NC      -0.093900
      6 C6          -3.9940    -0.1720    -1.2250 c6         1 3NC      -0.060400
      7 C7           3.6260    -0.0240    -0.6650 ca         1 3NC      -0.195600
      8 C8           2.8060    -0.9490     0.0060 ca         1 3NC       0.046200
      9 C9           3.3910    -2.1190     0.6610 cc         1 3NC      -0.262200
     10 C10          4.7600    -2.2950     0.6070 cd         1 3NC      -0.034400
     11 N11          5.5510    -1.3730    -0.0600 ns         1 3NC      -0.385100
     12 C12          5.1070    -0.2460    -0.7050 c          1 3NC       0.575600
     13 C13          3.0450     1.0970    -1.2890 ca         1 3NC      -0.009000
     14 C14          1.6550     1.2920    -1.2430 ca         1 3NC       0.037000
     15 C15          0.8210     0.3700    -0.5750 ca         1 3NC       0.028000
     16 C16          1.4140    -0.7510     0.0490 ca         1 3NC      -0.151000
     17 Cl18         0.9710     2.7120    -2.0390 cl         1 3NC      -0.206000
     18 N19         -0.5800     0.6240    -0.5630 ns         1 3NC      -0.154000
     19 C20         -1.6620    -0.0820    -0.0520 c          1 3NC       0.614100
     20 O21         -1.5630    -1.1580     0.5240 o          1 3NC      -0.571100
     21 N22         -6.1260    -1.9290     1.4690 n8         1 3NC      -0.988200
     22 H1          -2.8000     1.5260    -0.8050 hc         1 3NC       0.063700
     23 H2          -3.0060     1.5280     1.7190 hc         1 3NC       0.047700
     24 H2A         -4.4680     1.8550     0.7970 hc         1 3NC       0.047700
     25 H3          -3.7370    -0.8170     2.1360 hc         1 3NC       0.051700
     26 H3A         -5.0180     0.2880     2.6160 hc         1 3NC       0.051700
     27 H4          -6.2320    -0.0950     0.4740 h1         1 3NC       0.055700
     28 H5          -4.0040    -2.1110    -0.2240 hc         1 3NC       0.051700
     29 H5A         -5.4480    -1.7900    -1.1770 hc         1 3NC       0.051700
     30 H6          -4.7430     0.5250    -1.6280 hc         1 3NC       0.047700
     31 H6A         -3.4390    -0.5610    -2.0900 hc         1 3NC       0.047700
     32 H9           2.7740    -2.8450     1.1860 ha         1 3NC       0.205000
     33 H10          5.2970    -3.1270     1.0590 h4         1 3NC       0.200000
     34 HN11         6.5560    -1.5030    -0.0990 hn         1 3NC       0.328500
     35 H13          3.6670     1.8210    -1.8110 ha         1 3NC       0.151000
     36 H16          0.8120    -1.4810     0.5780 ha         1 3NC       0.152000
     37 HN19        -0.8340     1.4910    -1.0170 hn         1 3NC       0.164000
     38 HN22        -6.7290    -2.4170     0.7960 hn         1 3NC       0.392500
     39 HN2A        -5.4210    -2.6330     1.7140 hn         1 3NC       0.392500
     40 O17          5.8840     0.5110    -1.2670 o          1 3NC      -0.553000
@<TRIPOS>BOND
     1     1     2 1   
     2     1     6 1   
     3     1    19 1   
     4     1    22 1   
     5     2     3 1   
     6     2    23 1   
     7     2    24 1   
     8     3     4 1   
     9     3    25 1   
    10     3    26 1   
    11     4     5 1   
    12     4    21 1   
    13     4    27 1   
    14     5     6 1   
    15     5    28 1   
    16     5    29 1   
    17     6    30 1   
    18     6    31 1   
    19     7     8 ar  
    20     7    12 1   
    21     7    13 ar  
    22     8     9 1   
    23     8    16 ar  
    24     9    10 2   
    25     9    32 1   
    26    10    11 1   
    27    10    33 1   
    28    11    12 1   
    29    11    34 1   
    30    12    40 2   
    31    13    14 ar  
    32    13    35 1   
    33    14    15 ar  
    34    14    17 1   
    35    15    16 ar  
    36    15    18 1   
    37    16    36 1   
    38    18    19 1   
    39    18    37 1   
    40    19    20 2   
    41    21    38 1   
    42    21    39 1   
@<TRIPOS>SUBSTRUCTURE
     1 3NC         1 TEMP              0 ****  ****    0 ROOT
