@<TRIPOS>MOLECULE
3NC
   40    42     1     0     0
SMALL
bcc


@<TRIPOS>ATOM
      1 C1          -3.1230    -0.0030    -1.1810 c6         1 3NC      -0.141700
      2 C2          -3.5500     1.1280    -0.2300 c6         1 3NC      -0.060400
      3 C3          -3.9060     0.6170     1.1610 c6         1 3NC      -0.093900
      4 C4          -5.0130    -0.4280     1.1040 c6         1 3NC       0.155500
      5 C5          -4.6050    -1.5740     0.1780 c6         1 3NC      -0.093900
      6 C6          -4.1990    -1.0870    -1.2110 c6         1 3NC      -0.060400
      7 C7           3.3380     0.0930     0.0060 ca         1 3NC      -0.195600
      8 C8           2.6170    -1.0750    -0.2920 ca         1 3NC       0.046200
      9 C9           3.3020    -2.3320    -0.2950 cc         1 3NC      -0.212200
     10 C10          4.6170    -2.3570    -0.0090 cd         1 3NC       0.015600
     11 N11          5.3050    -1.2140     0.2830 ns         1 3NC      -0.452100
     12 C12          4.7650     0.0440     0.3150 c          1 3NC       0.718100
     13 C13          2.6810     1.3250     0.0040 ca         1 3NC      -0.027000
     14 C14          1.3430     1.3890    -0.2830 ca         1 3NC      -0.054600
     15 C15          0.5900     0.2290    -0.5860 ca         1 3NC       0.120600
     16 C16          1.2500    -0.9880    -0.5880 ca         1 3NC      -0.169000
     17 CL18         0.5570     2.9360    -0.2560 cl         1 3NC      -0.114400
     18 N19         -0.7560     0.3780    -0.8820 ns         1 3NC      -0.480100
     19 C20         -1.7490    -0.5640    -0.8430 c          1 3NC       0.681100
     20 O21         -1.5390    -1.7310    -0.5830 o          1 3NC      -0.571100
     21 N22         -5.3710    -0.8480     2.4530 n8         1 3NC      -0.877800
     22 H1          -3.0310     0.4250    -2.1860 hc         1 3NC       0.063700
     23 H2          -2.7920     1.9110    -0.1560 hc         1 3NC       0.047700
     24 H2A         -4.4260     1.6120    -0.6700 hc         1 3NC       0.047700
     25 H3          -3.0190     0.1840     1.6420 hc         1 3NC       0.051700
     26 H3A         -4.2210     1.4530     1.7890 hc         1 3NC       0.051700
     27 H4          -5.9010     0.0540     0.6760 h1         1 3NC       0.055700
     28 H5          -3.7800    -2.1230     0.6410 hc         1 3NC       0.051700
     29 H5A         -5.4350    -2.2810     0.0850 hc         1 3NC       0.051700
     30 H6          -5.0760    -0.6580    -1.7070 hc         1 3NC       0.047700
     31 H6A         -3.8820    -1.9260    -1.8330 hc         1 3NC       0.047700
     32 H9           2.7770    -3.2480    -0.5260 ha         1 3NC       0.155000
     33 H10          5.1990    -3.2650     0.0090 h4         1 3NC       0.150000
     34 HN11         6.2920    -1.2890     0.4870 hn         1 3NC       0.328500
     35 H13          3.2280     2.2290     0.2330 ha         1 3NC       0.169000
     36 H16          0.7160    -1.8940    -0.8260 ha         1 3NC       0.170000
     37 HN19        -1.0470     1.3150    -1.1170 hn         1 3NC       0.330500
     38 HN22        -6.1150    -1.5350     2.4030 hn         1 3NC       0.337300
     39 HN2A        -4.5840    -1.3350     2.8700 hn         1 3NC       0.337300
     40 O17          5.4490     1.0230     0.5840 o          1 3NC      -0.628500
@<TRIPOS>BOND
     1     1     2 1   
     2     1     6 1   
     3     1    19 1   
     4     1    22 1   
     5     2     3 1   
     6     2    23 1   
     7     2    24 1   
     8     3     4 1   
     9     3    25 1   
    10     3    26 1   
    11     4     5 1   
    12     4    21 1   
    13     4    27 1   
    14     5     6 1   
    15     5    28 1   
    16     5    29 1   
    17     6    30 1   
    18     6    31 1   
    19     7     8 ar  
    20     7    12 1   
    21     7    13 ar  
    22     8     9 1   
    23     8    16 ar  
    24     9    10 2   
    25     9    32 1   
    26    10    11 1   
    27    10    33 1   
    28    11    12 1   
    29    11    34 1   
    30    12    40 2   
    31    13    14 ar  
    32    13    35 1   
    33    14    15 ar  
    34    14    17 1   
    35    15    16 ar  
    36    15    18 1   
    37    16    36 1   
    38    18    19 1   
    39    18    37 1   
    40    19    20 2   
    41    21    38 1   
    42    21    39 1   
@<TRIPOS>SUBSTRUCTURE
     1 3NC         1 TEMP              0 ****  ****    0 ROOT
