@<TRIPOS>MOLECULE
3ND
   44    47     1     0     0
SMALL
bcc


@<TRIPOS>ATOM
      1 C1           5.9160     0.3460     1.6440 c2         1 3ND       0.496200
      2 N2           5.9220    -0.9030     1.8940 ne         1 3ND      -0.633100
      3 C3           4.7920    -1.6750     1.5790 c          1 3ND       0.704100
      4 C4           4.8240     1.1390     1.0330 c6         1 3ND      -0.158400
      5 C5           3.6170     0.3360     0.6970 ca         1 3ND      -0.006300
      6 C6           3.6190    -1.0280     0.9640 ca         1 3ND      -0.213600
      7 C7           2.4950    -1.7890     0.6450 ca         1 3ND      -0.024000
      8 C8           1.4000    -1.1880     0.0760 ca         1 3ND      -0.054600
      9 C9           1.3740     0.1960    -0.1970 ca         1 3ND       0.121600
     10 C10          2.5070     0.9400     0.1230 ca         1 3ND      -0.171000
     11 N11          0.2340     0.7280    -0.7720 ns         1 3ND      -0.473100
     12 C12         -0.1120     2.0380    -0.9720 c          1 3ND       0.687100
     13 C13         -1.5280     2.1800    -1.4820 c5         1 3ND      -0.182700
     14 C14         -1.8830     3.5560    -2.0910 c5         1 3ND       0.153800
     15 N15         -3.0350     4.0820    -1.3620 n7         1 3ND      -0.771200
     16 C16         -3.6790     2.9260    -0.7650 c5         1 3ND       0.146800
     17 C17         -2.5280     2.0170    -0.3070 c5         1 3ND      -0.055400
     18 C18         -2.8870     0.5970     0.0210 ca         1 3ND      -0.088300
     19 C19         -2.6100     0.0720     1.2800 ca         1 3ND      -0.116500
     20 C20         -2.9160    -1.2420     1.6000 ca         1 3ND      -0.117000
     21 C21         -3.5060    -2.0470     0.6410 ca         1 3ND       0.031400
     22 C22         -3.7940    -1.5560    -0.6230 ca         1 3ND      -0.117000
     23 C23         -3.4840    -0.2390    -0.9230 ca         1 3ND      -0.116500
     24 CL24        -3.8830    -3.6960     1.0210 cl         1 3ND      -0.102400
     25 O25          4.8150    -2.8610     1.8270 o          1 3ND      -0.492100
     26 CL26         0.0170    -2.1640    -0.3010 cl         1 3ND      -0.100400
     27 O27          0.6150     2.9750    -0.7190 o          1 3ND      -0.570100
     28 H1           6.8140     0.9020     1.9050 h4         1 3ND       0.024800
     29 H4           4.5800     1.9600     1.7160 hc         1 3ND       0.087700
     30 H4A          5.2310     1.6350     0.1440 hc         1 3ND       0.087700
     31 H7           2.4820    -2.8510     0.8460 ha         1 3ND       0.172000
     32 H10          2.5310     1.9990    -0.0780 ha         1 3ND       0.172000
     33 HN11        -0.4820     0.0540    -1.0050 hn         1 3ND       0.337500
     34 H13         -1.7100     1.3960    -2.2220 hc         1 3ND       0.074700
     35 H14         -1.0560     4.2610    -2.0490 h1         1 3ND       0.068700
     36 H14A        -2.1380     3.4170    -3.1430 h1         1 3ND       0.068700
     37 HN15        -2.7010     4.6790    -0.6160 hn         1 3ND       0.353800
     38 H16         -4.3320     3.2170     0.0570 h1         1 3ND       0.064200
     39 H16A        -4.2920     2.4120    -1.5130 h1         1 3ND       0.064200
     40 H17         -2.0940     2.4760     0.5880 hc         1 3ND       0.064700
     41 H19         -2.1380     0.6960     2.0290 ha         1 3ND       0.138000
     42 H20         -2.6870    -1.6310     2.5830 ha         1 3ND       0.152500
     43 H22         -4.2560    -2.1900    -1.3680 ha         1 3ND       0.152500
     44 H23         -3.7130     0.1330    -1.9150 ha         1 3ND       0.138000
@<TRIPOS>BOND
     1     1     2 2   
     2     1     4 1   
     3     1    28 1   
     4     2     3 1   
     5     3     6 1   
     6     3    25 2   
     7     4     5 1   
     8     4    29 1   
     9     4    30 1   
    10     5     6 ar  
    11     5    10 ar  
    12     6     7 ar  
    13     7     8 ar  
    14     7    31 1   
    15     8     9 ar  
    16     8    26 1   
    17     9    10 ar  
    18     9    11 1   
    19    10    32 1   
    20    11    12 1   
    21    11    33 1   
    22    12    13 1   
    23    12    27 2   
    24    13    14 1   
    25    13    17 1   
    26    13    34 1   
    27    14    15 1   
    28    14    35 1   
    29    14    36 1   
    30    15    16 1   
    31    15    37 1   
    32    16    17 1   
    33    16    38 1   
    34    16    39 1   
    35    17    18 1   
    36    17    40 1   
    37    18    19 ar  
    38    18    23 ar  
    39    19    20 ar  
    40    19    41 1   
    41    20    21 ar  
    42    20    42 1   
    43    21    22 ar  
    44    21    24 1   
    45    22    23 ar  
    46    22    43 1   
    47    23    44 1   
@<TRIPOS>SUBSTRUCTURE
     1 3ND         1 TEMP              0 ****  ****    0 ROOT
