@<TRIPOS>MOLECULE
3ND
   44    47     1     0     0
SMALL
No Charge or Current Charge


@<TRIPOS>ATOM
      1 C1           6.5000     0.9160     1.5810 c2         1 3ND       0.496200
      2 N2           6.8110    -0.3410     1.4660 ne         1 3ND      -0.633100
      3 C3           5.9530    -1.2600     0.8600 c          1 3ND       0.704100
      4 C4           5.2160     1.5540     1.1020 c6         1 3ND      -0.158400
      5 C5           4.1910     0.5490     0.6200 ca         1 3ND      -0.006300
      6 C6           4.5590    -0.8010     0.5030 ca         1 3ND      -0.213600
      7 C7           3.6030    -1.7290     0.0360 ca         1 3ND      -0.006000
      8 C8           2.3050    -1.3090    -0.3010 ca         1 3ND       0.037000
      9 C9           1.9320     0.0460    -0.1790 ca         1 3ND       0.029000
     10 C10          2.8930     0.9720     0.2820 ca         1 3ND      -0.153000
     11 N11          0.6050     0.4130    -0.5360 ns         1 3ND      -0.147000
     12 C12         -0.0860     1.6140    -0.4630 c          1 3ND       0.620100
     13 C13         -1.5220     1.3970    -1.0160 c5         1 3ND      -0.182700
     14 C14         -1.7740     2.4180    -2.1600 c5         1 3ND       0.153800
     15 N15         -2.2920     3.6050    -1.4490 n7         1 3ND      -0.826400
     16 C16         -3.3090     3.0320    -0.5410 c5         1 3ND       0.146800
     17 C17         -2.5840     1.7970     0.0770 c5         1 3ND      -0.055400
     18 C18         -3.6040     0.6580     0.2300 ca         1 3ND      -0.088300
     19 C19         -3.8530     0.1260     1.5120 ca         1 3ND      -0.098500
     20 C20         -4.7760    -0.9190     1.6910 ca         1 3ND      -0.099000
     21 C21         -5.4630    -1.4450     0.5870 ca         1 3ND       0.123000
     22 C22         -5.2280    -0.9280    -0.6950 ca         1 3ND      -0.099000
     23 C23         -4.3040     0.1170    -0.8740 ca         1 3ND      -0.098500
     24 Cl24        -6.6180    -2.7530     0.8100 cl         1 3ND      -0.194000
     25 O25          6.3100    -2.4050     0.6310 o          1 3ND      -0.492100
     26 Cl26         1.1470    -2.5110    -0.8770 cl         1 3ND      -0.192000
     27 O27          0.3650     2.6650    -0.0220 o          1 3ND      -0.570100
     28 H1           7.2170     1.5760     2.0620 h4         1 3ND       0.024800
     29 H4           4.7950     2.1500     1.9220 hc         1 3ND       0.087700
     30 H4A          5.4530     2.2580     0.2940 hc         1 3ND       0.087700
     31 H7           3.8590    -2.7810    -0.0680 ha         1 3ND       0.154000
     32 H10          2.6550     2.0260     0.3800 ha         1 3ND       0.154000
     33 HN11         0.0620    -0.3540    -0.9120 hn         1 3ND       0.171000
     34 H13         -1.6380     0.3670    -1.3720 hc         1 3ND       0.074700
     35 H14         -0.8650     2.6430    -2.7380 h1         1 3ND       0.068700
     36 H14A        -2.5250     2.0370    -2.8670 h1         1 3ND       0.068700
     37 HN15        -1.5280     3.9820    -0.8730 hn         1 3ND       0.409000
     38 H16         -3.6260     3.7500     0.2290 h1         1 3ND       0.064200
     39 H16A        -4.2050     2.7460    -1.1100 h1         1 3ND       0.064200
     40 H17         -2.1110     2.0620     1.0310 hc         1 3ND       0.064700
     41 H19         -3.3270     0.5220     2.3780 ha         1 3ND       0.120000
     42 H20         -4.9590    -1.3210     2.6840 ha         1 3ND       0.134500
     43 H22         -5.7600    -1.3360    -1.5510 ha         1 3ND       0.134500
     44 H23         -4.1360     0.5030    -1.8770 ha         1 3ND       0.120000
@<TRIPOS>BOND
     1     1     2 2   
     2     1     4 1   
     3     1    28 1   
     4     2     3 1   
     5     3     6 1   
     6     3    25 2   
     7     4     5 1   
     8     4    29 1   
     9     4    30 1   
    10     5     6 ar  
    11     5    10 ar  
    12     6     7 ar  
    13     7     8 ar  
    14     7    31 1   
    15     8     9 ar  
    16     8    26 1   
    17     9    10 ar  
    18     9    11 1   
    19    10    32 1   
    20    11    12 1   
    21    11    33 1   
    22    12    13 1   
    23    12    27 2   
    24    13    14 1   
    25    13    17 1   
    26    13    34 1   
    27    14    15 1   
    28    14    35 1   
    29    14    36 1   
    30    15    16 1   
    31    15    37 1   
    32    16    17 1   
    33    16    38 1   
    34    16    39 1   
    35    17    18 1   
    36    17    40 1   
    37    18    19 ar  
    38    18    23 ar  
    39    19    20 ar  
    40    19    41 1   
    41    20    21 ar  
    42    20    42 1   
    43    21    22 ar  
    44    21    24 1   
    45    22    23 ar  
    46    22    43 1   
    47    23    44 1   
@<TRIPOS>SUBSTRUCTURE
     1 3ND         1 TEMP              0 ****  ****    0 ROOT
