@<TRIPOS>MOLECULE
3NE
   31    33     1     0     0
SMALL
bcc


@<TRIPOS>ATOM
      1 C4          -1.5790     0.3940    -0.0020 ca         1 3NE      -0.049000
      2 C5           3.4790    -0.4950    -1.1480 cc         1 3NE      -0.226200
      3 C6          -0.6750     0.3760     1.0560 ca         1 3NE      -0.140500
      4 C7          -2.8340    -0.1760     0.1510 ca         1 3NE      -0.198300
      5 C8           2.2210    -0.4940    -0.6480 cd         1 3NE      -0.026400
      6 C10          1.7920     0.5860     0.1750 cd         1 3NE      -0.294100
      7 C13         -3.8090    -0.1970    -0.9840 c3         1 3NE       0.722200
      8 C1          -2.2970    -0.7780     2.4110 ca         1 3NE      -0.137000
      9 C2          -1.0420    -0.2060     2.2630 ca         1 3NE      -0.064000
     10 C3          -3.1950    -0.7700     1.3560 ca         1 3NE      -0.067000
     11 C9           4.4400     0.5670    -0.8810 c          1 3NE       0.716700
     12 C11          0.6500     1.0060     0.9170 cd         1 3NE       0.436800
     13 C12          2.7320     1.5750     0.4410 cc         1 3NE       0.098300
     14 N15          2.1670     2.4590     1.2610 na         1 3NE      -0.035600
     15 N16          3.9860     1.5780    -0.0570 ns         1 3NE      -0.436100
     16 N17          0.9010     2.1230     1.5570 nc         1 3NE      -0.485800
     17 O18          5.5750     0.5870    -1.3290 o          1 3NE      -0.597500
     18 F19         -5.0420     0.1470    -0.5900 f          1 3NE      -0.233633
     19 F20         -3.4670     0.6330    -1.9740 f          1 3NE      -0.233633
     20 F21         -3.9090    -1.4230    -1.5220 f          1 3NE      -0.233633
     21 F22          0.3010    -1.2220    -1.7700 f          1 3NE      -0.225967
     22 F23          1.8990    -2.6430    -1.5710 f          1 3NE      -0.225967
     23 F24          0.7260    -2.1100     0.1480 f          1 3NE      -0.225967
     24 H4          -1.2950     0.8740    -0.9280 ha         1 3NE       0.157000
     25 H5           3.8420    -1.2980    -1.7720 ha         1 3NE       0.180000
     26 H1          -2.5770    -1.2340     3.3510 ha         1 3NE       0.143000
     27 H2          -0.3420    -0.2180     3.0880 ha         1 3NE       0.143000
     28 H3          -4.1700    -1.2220     1.4840 ha         1 3NE       0.148000
     29 HN16         4.6310     2.3230     0.1750 hn         1 3NE       0.336500
     30 HN15         2.5680     3.3000     1.6450 hn         1 3NE       0.335700
     31 C14          1.2870    -1.6280    -0.9630 c3         1 3NE       0.719100
@<TRIPOS>BOND
     1     1     3 ar  
     2     1     4 ar  
     3     1    24 1   
     4     2     5 2   
     5     2    11 1   
     6     2    25 1   
     7     3     9 ar  
     8     3    12 1   
     9     4     7 1   
    10     4    10 ar  
    11     5     6 1   
    12     5    31 1   
    13     6    12 1   
    14     6    13 2   
    15     7    18 1   
    16     7    19 1   
    17     7    20 1   
    18     8     9 ar  
    19     8    10 ar  
    20     8    26 1   
    21     9    27 1   
    22    10    28 1   
    23    11    15 1   
    24    11    17 2   
    25    12    16 2   
    26    13    14 1   
    27    13    15 1   
    28    14    16 1   
    29    14    30 1   
    30    15    29 1   
    31    21    31 1   
    32    22    31 1   
    33    23    31 1   
@<TRIPOS>SUBSTRUCTURE
     1 3NE         1 TEMP              0 ****  ****    0 ROOT
