@<TRIPOS>MOLECULE
3NE
   31    33     1     0     0
SMALL
No Charge or Current Charge


@<TRIPOS>ATOM
      1 C4          -1.5610     0.4840     0.0060 ca         1 3NE      -0.031000
      2 C5           3.4190    -0.5400    -1.0780 cc         1 3NE      -0.276200
      3 C6          -0.6350     0.4280     1.0640 ca         1 3NE      -0.140500
      4 C7          -2.8130    -0.1620     0.1090 ca         1 3NE      -0.198300
      5 C8           2.1270    -0.5280    -0.5390 cd         1 3NE      -0.026400
      6 C10          1.8290     0.6680     0.2390 cd         1 3NE      -0.228800
      7 C13         -3.7990    -0.1150    -1.0620 c3         1 3NE       0.358300
      8 C1          -2.2040    -0.9150     2.3530 ca         1 3NE      -0.119000
      9 C2          -0.9640    -0.2660     2.2430 ca         1 3NE      -0.046000
     10 C3          -3.1230    -0.8700     1.2910 ca         1 3NE      -0.049000
     11 C9           4.4360     0.5190    -0.9010 c          1 3NE       0.574200
     12 C11          0.6650     1.0940     0.9420 cd         1 3NE       0.371500
     13 C12          2.7630     1.6330     0.4080 cc         1 3NE       0.047600
     14 N15          2.1600     2.5930     1.2050 na         1 3NE      -0.035200
     15 N16          4.0180     1.5710    -0.1340 ns         1 3NE      -0.369100
     16 N17          0.8530     2.2620     1.5440 nc         1 3NE      -0.485800
     17 O18          5.5560     0.4750    -1.3850 o          1 3NE      -0.522000
     18 F19         -5.0800    -0.3070    -0.6720 f          1 3NE      -0.112333
     19 F20         -3.7680     1.0740    -1.7070 f          1 3NE      -0.112333
     20 F21         -3.5180    -1.0680    -1.9780 f          1 3NE      -0.112333
     21 F22          0.1210    -1.3210    -1.5620 f          1 3NE      -0.104667
     22 F23          1.7340    -2.7470    -1.3560 f          1 3NE      -0.104667
     23 F24          0.6250    -2.1400     0.3960 f          1 3NE      -0.104667
     24 H4          -1.2990     1.0260    -0.9010 ha         1 3NE       0.139000
     25 H5           3.7730    -1.3650    -1.6840 ha         1 3NE       0.230000
     26 H1          -2.4520    -1.4590     3.2610 ha         1 3NE       0.125000
     27 H2          -0.2550    -0.3080     3.0670 ha         1 3NE       0.125000
     28 H3          -4.0740    -1.3890     1.3930 ha         1 3NE       0.130000
     29 HN16         4.6890     2.3150     0.0130 hn         1 3NE       0.336500
     30 HN15         2.5910     3.4570     1.5290 hn         1 3NE       0.386000
     31 C14          1.1490    -1.6810    -0.7620 c3         1 3NE       0.355200
@<TRIPOS>BOND
     1     1     3 ar  
     2     1     4 ar  
     3     1    24 1   
     4     2     5 2   
     5     2    11 1   
     6     2    25 1   
     7     3     9 ar  
     8     3    12 1   
     9     4     7 1   
    10     4    10 ar  
    11     5     6 1   
    12     5    31 1   
    13     6    12 1   
    14     6    13 2   
    15     7    18 1   
    16     7    19 1   
    17     7    20 1   
    18     8     9 ar  
    19     8    10 ar  
    20     8    26 1   
    21     9    27 1   
    22    10    28 1   
    23    11    15 1   
    24    11    17 2   
    25    12    16 2   
    26    13    14 1   
    27    13    15 1   
    28    14    16 1   
    29    14    30 1   
    30    15    29 1   
    31    21    31 1   
    32    22    31 1   
    33    23    31 1   
@<TRIPOS>SUBSTRUCTURE
     1 3NE         1 TEMP              0 ****  ****    0 ROOT
