@<TRIPOS>MOLECULE
3NF
   28    28     1     0     0
SMALL
bcc


@<TRIPOS>ATOM
      1 O1          -2.1910     1.7370    -1.5680 o          1 3NF      -0.631100
      2 C2          -1.8090     1.8810    -0.4120 c          1 3NF       0.672100
      3 C3          -1.8670     3.2240     0.2760 c3         1 3NF      -0.177100
      4 N4          -1.2980     0.8810     0.3190 ns         1 3NF      -0.523900
      5 C5          -1.3350    -0.4970    -0.1000 c3         1 3NF      -0.038300
      6 C6          -2.7350    -1.1470     0.0680 c          1 3NF       0.926600
      7 O7          -3.6080    -0.4970     0.6650 o          1 3NF      -0.826800
      8 OXT         -2.8390    -2.2920    -0.4160 o          1 3NF      -0.826800
      9 C9          -0.2760    -1.2970     0.6690 c3         1 3NF      -0.036100
     10 C10          1.1250    -0.8110     0.4240 ca         1 3NF      -0.076300
     11 C11          1.8300    -1.2170    -0.7050 ca         1 3NF      -0.093000
     12 C12          3.1120    -0.7580    -0.9690 ca         1 3NF      -0.195500
     13 C13          3.7230     0.1360    -0.0930 ca         1 3NF       0.108100
     14 C14          3.0350     0.5530     1.0430 ca         1 3NF      -0.195500
     15 C15          1.7550     0.0810     1.2890 ca         1 3NF      -0.093000
     16 O16          4.9680     0.6190    -0.2930 oh         1 3NF      -0.510100
     17 H3          -2.9100     3.5040     0.4300 hc         1 3NF       0.041367
     18 H3A         -1.3650     3.2400     1.2420 hc         1 3NF       0.041367
     19 H3B         -1.4180     3.9840    -0.3620 hc         1 3NF       0.041367
     20 H2          -1.1270     1.0590     1.2960 hn         1 3NF       0.288500
     21 H5          -1.0770    -0.5340    -1.1610 h1         1 3NF       0.065700
     22 H9          -0.5020    -1.2640     1.7400 hc         1 3NF       0.056700
     23 H9A         -0.3670    -2.3400     0.3650 hc         1 3NF       0.056700
     24 H11          1.3730    -1.9160    -1.3980 ha         1 3NF       0.131500
     25 H12          3.6370    -1.1020    -1.8540 ha         1 3NF       0.124000
     26 H14          3.5050     1.2440     1.7330 ha         1 3NF       0.124000
     27 H15          1.2430     0.4120     2.1850 ha         1 3NF       0.131500
     28 HO16         5.3430     0.2520    -1.1010 ho         1 3NF       0.414000
@<TRIPOS>BOND
     1     1     2 2   
     2     2     3 1   
     3     2     4 1   
     4     3    17 1   
     5     3    18 1   
     6     3    19 1   
     7     4     5 1   
     8     4    20 1   
     9     5     6 1   
    10     5     9 1   
    11     5    21 1   
    12     6     7 1   
    13     6     8 1   
    14     9    10 1   
    15     9    22 1   
    16     9    23 1   
    17    10    11 ar  
    18    10    15 ar  
    19    11    12 ar  
    20    11    24 1   
    21    12    13 ar  
    22    12    25 1   
    23    13    14 ar  
    24    13    16 1   
    25    14    15 ar  
    26    14    26 1   
    27    15    27 1   
    28    16    28 1   
@<TRIPOS>SUBSTRUCTURE
     1 3NF         1 TEMP              0 ****  ****    0 ROOT
