@<TRIPOS>MOLECULE
3NF
   28    28     1     0     0
SMALL
No Charge or Current Charge


@<TRIPOS>ATOM
      1 O1          -0.5850     1.5680    -1.5610 o          1 3NF      -0.631100
      2 C2          -1.1010     1.7580    -0.4670 c          1 3NF       0.605100
      3 C3          -1.2450     3.1510     0.1380 c3         1 3NF      -0.177100
      4 N4          -1.6100     0.7410     0.3110 ns         1 3NF      -0.456900
      5 C5          -1.5330    -0.7080    -0.0040 c3         1 3NF      -0.038300
      6 C6          -2.8860    -1.4120     0.3190 c          1 3NF       0.716000
      7 O7          -3.3720    -1.2630     1.4330 o          1 3NF      -0.721500
      8 OXT         -3.4470    -2.0240    -0.5800 o          1 3NF      -0.721500
      9 C9          -0.3520    -1.3940     0.7280 c3         1 3NF      -0.036100
     10 C10          1.0010    -0.7590     0.4220 ca         1 3NF      -0.076300
     11 C11          1.6780    -1.0760    -0.7730 ca         1 3NF      -0.075000
     12 C12          2.9250    -0.4910    -1.0580 ca         1 3NF      -0.177500
     13 C13          3.4990     0.4140    -0.1500 ca         1 3NF       0.108100
     14 C14          2.8310     0.7330     1.0410 ca         1 3NF      -0.177500
     15 C15          1.5850     0.1480     1.3280 ca         1 3NF      -0.075000
     16 O16          4.7060     0.9830    -0.4220 oh         1 3NF      -0.549100
     17 H3          -2.2980     3.3270     0.3870 hc         1 3NF       0.041367
     18 H3A         -0.7700     3.1610     1.1260 hc         1 3NF       0.041367
     19 H3B         -0.8450     3.9390    -0.5090 hc         1 3NF       0.041367
     20 H2          -2.0440     1.0140     1.1850 hn         1 3NF       0.288500
     21 H5          -1.3730    -0.8180    -1.0840 h1         1 3NF       0.065700
     22 H9          -0.5400    -1.3730     1.8080 hc         1 3NF       0.056700
     23 H9A         -0.3340    -2.4540     0.4480 hc         1 3NF       0.056700
     24 H11          1.2350    -1.7730    -1.4810 ha         1 3NF       0.113500
     25 H12          3.4360    -0.7430    -1.9840 ha         1 3NF       0.106000
     26 H14          3.2750     1.4340     1.7430 ha         1 3NF       0.106000
     27 H15          1.0710     0.4040     2.2530 ha         1 3NF       0.113500
     28 HO16         5.0180     0.6470    -1.2890 ho         1 3NF       0.453000
@<TRIPOS>BOND
     1     1     2 2   
     2     2     3 1   
     3     2     4 1   
     4     3    17 1   
     5     3    18 1   
     6     3    19 1   
     7     4     5 1   
     8     4    20 1   
     9     5     6 1   
    10     5     9 1   
    11     5    21 1   
    12     6     7 1   
    13     6     8 1   
    14     9    10 1   
    15     9    22 1   
    16     9    23 1   
    17    10    11 ar  
    18    10    15 ar  
    19    11    12 ar  
    20    11    24 1   
    21    12    13 ar  
    22    12    25 1   
    23    13    14 ar  
    24    13    16 1   
    25    14    15 ar  
    26    14    26 1   
    27    15    27 1   
    28    16    28 1   
@<TRIPOS>SUBSTRUCTURE
     1 3NF         1 TEMP              0 ****  ****    0 ROOT
