@<TRIPOS>MOLECULE
3NG
   36    39     1     0     0
SMALL
bcc


@<TRIPOS>ATOM
      1 C1          -1.7130     0.3090    -0.0640 ca         1 3NG       0.405600
      2 C2          -2.5620    -0.8070     0.0510 ca         1 3NG      -0.166300
      3 C3          -3.9470    -0.5930     0.1140 ca         1 3NG      -0.146000
      4 C4          -4.4670     0.6790     0.0660 ca         1 3NG      -0.087000
      5 C5          -3.6280     1.8000    -0.0460 ca         1 3NG      -0.113600
      6 C6          -2.2660     1.5990    -0.1100 ca         1 3NG      -0.154300
      7 C7          -0.5340    -2.1980     0.0230 ca         1 3NG      -0.148300
      8 C8          -1.9320    -2.1040     0.0930 ca         1 3NG      -0.083300
      9 N9          -0.3510     0.2020    -0.1280 nb         1 3NG      -0.716000
     10 C10          0.2230    -0.9540    -0.0860 ca         1 3NG       0.668200
     11 C11         -0.7730    -4.5770     0.1580 ca         1 3NG       0.367200
     12 N12         -2.1060    -4.4970     0.2310 nb         1 3NG      -0.669000
     13 C13         -2.6560    -3.3060     0.1980 ca         1 3NG       0.411200
     14 C14          0.0420    -3.4750     0.0540 ca         1 3NG      -0.226300
     15 N15          1.5830    -1.0500    -0.1420 nu         1 3NG      -0.754300
     16 C16          2.5540    -0.0700    -0.3000 ca         1 3NG       0.202600
     17 C17          3.8810    -0.5080    -0.2020 ca         1 3NG      -0.210000
     18 C18          4.9170     0.3890    -0.3670 ca         1 3NG       0.061400
     19 C19          4.6900     1.7310    -0.6290 ca         1 3NG      -0.171000
     20 C20          3.3730     2.1530    -0.7220 ca         1 3NG      -0.091000
     21 C21          2.3060     1.2800    -0.5620 ca         1 3NG      -0.148000
     22 CL22         6.5480    -0.1900    -0.2430 cl         1 3NG      -0.140400
     23 C23         -4.2110     3.2080    -0.0920 c          1 3NG       0.922200
     24 O24         -3.3960     4.1470    -0.1690 o          1 3NG      -0.815800
     25 O25         -5.4530     3.2950    -0.0470 o          1 3NG      -0.815800
     26 H3          -4.6270    -1.4290     0.2010 ha         1 3NG       0.111000
     27 H4          -5.5380     0.8210     0.1170 ha         1 3NG       0.154000
     28 H6          -1.5930     2.4420    -0.1970 ha         1 3NG       0.165000
     29 H11         -0.3440    -5.5710     0.1830 h4         1 3NG       0.008100
     30 H13         -3.7380    -3.2830     0.2560 h4         1 3NG       0.024100
     31 H14          1.1080    -3.6420    -0.0040 ha         1 3NG       0.124000
     32 HN15         1.9640    -1.9730    -0.0220 hn         1 3NG       0.433800
     33 H17          4.0940    -1.5500     0.0030 ha         1 3NG       0.134000
     34 H19          5.5100     2.4230    -0.7550 ha         1 3NG       0.140000
     35 H20          3.1670     3.1950    -0.9250 ha         1 3NG       0.137000
     36 H21          1.2960     1.6440    -0.6390 ha         1 3NG       0.188000
@<TRIPOS>BOND
     1     1     2 ar  
     2     1     6 ar  
     3     1     9 ar  
     4     2     3 ar  
     5     2     8 ar  
     6     3     4 ar  
     7     3    26 1   
     8     4     5 ar  
     9     4    27 1   
    10     5     6 ar  
    11     5    23 1   
    12     6    28 1   
    13     7     8 ar  
    14     7    10 ar  
    15     7    14 ar  
    16     8    13 ar  
    17     9    10 ar  
    18    10    15 1   
    19    11    12 ar  
    20    11    14 ar  
    21    11    29 1   
    22    12    13 ar  
    23    13    30 1   
    24    14    31 1   
    25    15    16 1   
    26    15    32 1   
    27    16    17 ar  
    28    16    21 ar  
    29    17    18 ar  
    30    17    33 1   
    31    18    19 ar  
    32    18    22 1   
    33    19    20 ar  
    34    19    34 1   
    35    20    21 ar  
    36    20    35 1   
    37    21    36 1   
    38    23    24 1   
    39    23    25 1   
@<TRIPOS>SUBSTRUCTURE
     1 3NG         1 TEMP              0 ****  ****    0 ROOT
