@<TRIPOS>MOLECULE
3NG
   36    39     1     0     0
SMALL
No Charge or Current Charge


@<TRIPOS>ATOM
      1 C1          -1.6670     0.3170     0.0640 ca         1 3NG       0.275000
      2 C2          -2.5370    -0.8070     0.0570 ca         1 3NG      -0.101000
      3 C3          -3.9360    -0.5930     0.1030 ca         1 3NG      -0.128000
      4 C4          -4.4620     0.7070     0.1550 ca         1 3NG      -0.069000
      5 C5          -3.6100     1.8300     0.1640 ca         1 3NG      -0.113600
      6 C6          -2.2160     1.6120     0.1180 ca         1 3NG      -0.071000
      7 C7          -0.5590    -2.2160    -0.0410 ca         1 3NG      -0.083000
      8 C8          -1.9660    -2.1080     0.0050 ca         1 3NG      -0.018000
      9 N9          -0.3240     0.1900     0.0230 nb         1 3NG      -0.716000
     10 C10          0.2120    -1.0320    -0.0380 ca         1 3NG       0.602900
     11 C11         -0.8280    -4.6330    -0.0990 ca         1 3NG       0.301900
     12 N12         -2.1730    -4.5440    -0.0520 nb         1 3NG      -0.669000
     13 C13         -2.7250    -3.3070    -0.0020 ca         1 3NG       0.345900
     14 C14          0.0120    -3.5090    -0.0960 ca         1 3NG      -0.143000
     15 N15          1.5980    -1.0470    -0.0350 nu         1 3NG      -0.947900
     16 C16          2.5900    -0.0970    -0.2900 ca         1 3NG       0.341000
     17 C17          3.8540    -0.2870     0.2880 ca         1 3NG      -0.192000
     18 C18          4.8890     0.6280     0.0440 ca         1 3NG       0.153000
     19 C19          4.6740     1.7360    -0.7890 ca         1 3NG      -0.153000
     20 C20          3.4170     1.9260    -1.3870 ca         1 3NG      -0.073000
     21 C21          2.3810     1.0070    -1.1400 ca         1 3NG      -0.130000
     22 Cl22         6.4640     0.3840     0.7850 cl         1 3NG      -0.232000
     23 C23         -4.1750     3.2390     0.2210 c          1 3NG       0.711600
     24 O24         -3.3960     4.1820     0.2270 o          1 3NG      -0.710500
     25 O25         -5.3900     3.3810     0.2590 o          1 3NG      -0.710500
     26 H3          -4.6420    -1.4160     0.0980 ha         1 3NG       0.093000
     27 H4          -5.5420     0.8370     0.1890 ha         1 3NG       0.136000
     28 H6          -1.5350     2.4590     0.1240 ha         1 3NG       0.147000
     29 H11         -0.4100    -5.6380    -0.1430 h4         1 3NG       0.008100
     30 H13         -3.8110    -3.3030     0.0340 h4         1 3NG       0.024100
     31 H14          1.0860    -3.6600    -0.1450 ha         1 3NG       0.106000
     32 HN15         1.9640    -1.9300     0.3030 hn         1 3NG       0.489000
     33 H17          4.0370    -1.1390     0.9350 ha         1 3NG       0.116000
     34 H19          5.4800     2.4410    -0.9760 ha         1 3NG       0.122000
     35 H20          3.2470     2.7770    -2.0430 ha         1 3NG       0.119000
     36 H21          1.4200     1.1500    -1.6230 ha         1 3NG       0.170000
@<TRIPOS>BOND
     1     1     2 ar  
     2     1     6 ar  
     3     1     9 ar  
     4     2     3 ar  
     5     2     8 ar  
     6     3     4 ar  
     7     3    26 1   
     8     4     5 ar  
     9     4    27 1   
    10     5     6 ar  
    11     5    23 1   
    12     6    28 1   
    13     7     8 ar  
    14     7    10 ar  
    15     7    14 ar  
    16     8    13 ar  
    17     9    10 ar  
    18    10    15 1   
    19    11    12 ar  
    20    11    14 ar  
    21    11    29 1   
    22    12    13 ar  
    23    13    30 1   
    24    14    31 1   
    25    15    16 1   
    26    15    32 1   
    27    16    17 ar  
    28    16    21 ar  
    29    17    18 ar  
    30    17    33 1   
    31    18    19 ar  
    32    18    22 1   
    33    19    20 ar  
    34    19    34 1   
    35    20    21 ar  
    36    20    35 1   
    37    21    36 1   
    38    23    24 1   
    39    23    25 1   
@<TRIPOS>SUBSTRUCTURE
     1 3NG         1 TEMP              0 ****  ****    0 ROOT
