@<TRIPOS>MOLECULE
3NJ
   13    13     1     0     0
SMALL
No Charge or Current Charge


@<TRIPOS>ATOM
      1 C1          -9.7930   -15.5840   -39.5870 c          1 3NJ       0.694300
      2 C2          -8.9980   -13.7040   -40.9450 c          1 3NJ       0.713300
      3 C3         -10.2680   -13.0850   -41.3260 cc         1 3NJ      -0.334200
      4 C4         -11.5790   -13.3600   -41.0770 cd         1 3NJ       0.216500
      5 C5         -12.0480   -14.4420   -40.2960 cd         1 3NJ      -0.164000
      6 C6         -11.2470   -15.3720   -39.6750 cc         1 3NJ      -0.240200
      7 O3          -8.8330   -14.8130   -40.1710 os         1 3NJ      -0.502200
      8 F4         -12.5240   -12.5600   -41.6010 f          1 3NJ      -0.156500
      9 O2          -7.9790   -13.1750   -41.3600 o          1 3NJ      -0.446000
     10 O1          -9.4030   -16.5380   -38.9320 o          1 3NJ      -0.446000
     11 H1         -10.0810   -12.2170   -41.9460 ha         1 3NJ       0.234000
     12 H2         -13.1250   -14.5360   -40.1840 ha         1 3NJ       0.212000
     13 H3         -11.7590   -16.1440   -39.1090 ha         1 3NJ       0.220000
@<TRIPOS>BOND
     1     1     6 1   
     2     1     7 1   
     3     1    10 2   
     4     2     3 1   
     5     2     7 1   
     6     2     9 2   
     7     3     4 2   
     8     3    11 1   
     9     4     5 1   
    10     4     8 1   
    11     5     6 2   
    12     5    12 1   
    13     6    13 1   
@<TRIPOS>SUBSTRUCTURE
     1 3NJ         1 TEMP              0 ****  ****    0 ROOT
