@<TRIPOS>MOLECULE
3NJ
   13    13     1     0     0
SMALL
abcg2


@<TRIPOS>ATOM
      1 C1          -9.8580   -15.6800   -39.7010 c          1 3NJ       0.694300
      2 C2          -9.0130   -13.5760   -40.8630 c          1 3NJ       0.713300
      3 C3         -10.2460   -13.0960   -41.4590 cc         1 3NJ      -0.334200
      4 C4         -11.4950   -13.4540   -41.1420 cd         1 3NJ       0.216500
      5 C5         -11.9850   -14.4070   -40.1790 cd         1 3NJ      -0.164000
      6 C6         -11.2730   -15.3390   -39.5390 cc         1 3NJ      -0.240200
      7 O3          -8.9390   -14.7820   -40.1910 os         1 3NJ      -0.502200
      8 F4         -12.4910   -12.8070   -41.7720 f          1 3NJ      -0.156500
      9 O2          -7.9720   -12.9800   -40.9740 o          1 3NJ      -0.446000
     10 O1          -9.4220   -16.7490   -39.3590 o          1 3NJ      -0.446000
     11 H1         -10.1070   -12.2960   -42.1740 ha         1 3NJ       0.234000
     12 H2         -13.0500   -14.3530   -39.9930 ha         1 3NJ       0.212000
     13 H3         -11.7840   -16.0110   -38.8620 ha         1 3NJ       0.220000
@<TRIPOS>BOND
     1     1     6 1   
     2     1     7 1   
     3     1    10 2   
     4     2     3 1   
     5     2     7 1   
     6     2     9 2   
     7     3     4 2   
     8     3    11 1   
     9     4     5 1   
    10     4     8 1   
    11     5     6 2   
    12     5    12 1   
    13     6    13 1   
@<TRIPOS>SUBSTRUCTURE
     1 3NJ         1 TEMP              0 ****  ****    0 ROOT
