@<TRIPOS>MOLECULE
3NK
   32    33     1     0     0
SMALL
No Charge or Current Charge


@<TRIPOS>ATOM
      1 C14          5.6680    -0.3180     0.4700 c3         1 3NK      -0.196100
      2 C13          4.3330     0.3510     0.7920 c          1 3NK       0.592100
      3 C12          3.7300     1.2370    -0.2790 c3         1 3NK      -0.295400
      4 C11          2.6490     0.4120    -0.9580 c          1 3NK       0.596700
      5 O11          2.9710    -0.4320    -1.7830 o          1 3NK      -0.524100
      6 C2           1.1910     0.6240    -0.6150 ca         1 3NK      -0.194600
      7 C1           0.3100    -0.4790    -0.6680 ca         1 3NK      -0.011000
      8 C9          -1.0550    -0.3250    -0.3590 ca         1 3NK      -0.093000
      9 C8          -1.9230    -1.4320    -0.4060 ca         1 3NK      -0.047000
     10 C7          -3.2860    -1.2750    -0.0960 ca         1 3NK      -0.185000
     11 C6          -3.7880    -0.0050     0.2630 ca         1 3NK       0.160100
     12 O6          -5.1150     0.2090     0.5770 os         1 3NK      -0.341100
     13 C15         -6.0870    -0.8520     0.5610 c3         1 3NK       0.149900
     14 C5          -2.9190     1.0970     0.3090 ca         1 3NK      -0.163000
     15 C10         -1.5550     0.9430     0.0000 ca         1 3NK       0.025000
     16 C4          -0.6880     2.0470     0.0420 ca         1 3NK      -0.117000
     17 C3           0.6740     1.8940    -0.2660 ca         1 3NK      -0.071000
     18 ONA          3.7790     0.1890     1.8700 o          1 3NK      -0.507100
     19 H141         6.4010     0.4570     0.2190 hc         1 3NK       0.062033
     20 H142         6.0250    -0.9610     1.2810 hc         1 3NK       0.062033
     21 H143         5.5760    -0.8650    -0.4760 hc         1 3NK       0.062033
     22 H121         3.3100     2.1140     0.2180 hc         1 3NK       0.084200
     23 H122         4.4960     1.4820    -1.0230 hc         1 3NK       0.084200
     24 H1           0.6890    -1.4620    -0.9430 ha         1 3NK       0.134000
     25 H3           1.3090     2.7760    -0.2490 ha         1 3NK       0.112000
     26 H8          -1.5450    -2.4140    -0.6820 ha         1 3NK       0.118000
     27 H7          -3.9320    -2.1460    -0.1400 ha         1 3NK       0.120000
     28 H5          -3.3100     2.0720     0.5850 ha         1 3NK       0.131000
     29 H151        -5.8170    -1.6400     1.2740 h1         1 3NK       0.043367
     30 H152        -7.0750    -0.4650     0.8410 h1         1 3NK       0.043367
     31 H4          -1.0700     3.0310     0.3080 ha         1 3NK       0.119000
     32 H153        -6.1660    -1.2940    -0.4410 h1         1 3NK       0.043367
@<TRIPOS>BOND
     1     1     2 1   
     2     1    19 1   
     3     1    20 1   
     4     1    21 1   
     5     2     3 1   
     6     2    18 2   
     7     3     4 1   
     8     3    22 1   
     9     3    23 1   
    10     4     5 2   
    11     4     6 1   
    12     6     7 ar  
    13     6    17 ar  
    14     7     8 ar  
    15     7    24 1   
    16     8     9 ar  
    17     8    15 ar  
    18     9    10 ar  
    19     9    26 1   
    20    10    11 ar  
    21    10    27 1   
    22    11    12 1   
    23    11    14 ar  
    24    12    13 1   
    25    13    29 1   
    26    13    30 1   
    27    13    32 1   
    28    14    15 ar  
    29    14    28 1   
    30    15    16 ar  
    31    16    17 ar  
    32    16    31 1   
    33    17    25 1   
@<TRIPOS>SUBSTRUCTURE
     1 3NK         1 TEMP              0 ****  ****    0 ROOT
