@<TRIPOS>MOLECULE
3NK
   32    33     1     0     0
SMALL
abcg2


@<TRIPOS>ATOM
      1 C14          5.6350     0.2590    -0.8730 c3         1 3NK      -0.196100
      2 C13          5.0370     0.4050     0.4940 c          1 3NK       0.592100
      3 C12          3.6270     0.9540     0.5430 c3         1 3NK      -0.295400
      4 C11          2.6190    -0.1600     0.3460 c          1 3NK       0.596700
      5 O11          2.9930    -1.3100     0.2370 o          1 3NK      -0.524100
      6 C2           1.1830     0.2000     0.2950 ca         1 3NK      -0.194600
      7 C1           0.2540    -0.7920     0.0810 ca         1 3NK      -0.011000
      8 C9          -1.1210    -0.5010     0.0230 ca         1 3NK      -0.093000
      9 C8          -2.0890    -1.5060    -0.1990 ca         1 3NK      -0.047000
     10 C7          -3.4230    -1.2100    -0.2490 ca         1 3NK      -0.185000
     11 C6          -3.8580     0.1270    -0.0780 ca         1 3NK       0.160100
     12 O6          -5.1490     0.4890    -0.1150 os         1 3NK      -0.341100
     13 C15         -6.1470    -0.5030    -0.2800 c3         1 3NK       0.149900
     14 C5          -2.9360     1.1290     0.1370 ca         1 3NK      -0.163000
     15 C10         -1.5630     0.8390     0.1920 ca         1 3NK       0.025000
     16 C4          -0.5900     1.8450     0.4150 ca         1 3NK      -0.117000
     17 C3           0.7380     1.5370     0.4640 ca         1 3NK      -0.071000
     18 ONA          5.6350     0.1270     1.5060 o          1 3NK      -0.507100
     19 H141         5.8960     1.2530    -1.2460 hc         1 3NK       0.062033
     20 H142         6.5350    -0.3520    -0.8540 hc         1 3NK       0.062033
     21 H143         4.9190    -0.1600    -1.5800 hc         1 3NK       0.062033
     22 H121         3.4460     1.4320     1.5100 hc         1 3NK       0.084200
     23 H122         3.4790     1.7170    -0.2270 hc         1 3NK       0.084200
     24 H1           0.5770    -1.8180    -0.0510 ha         1 3NK       0.134000
     25 H3           1.4500     2.3330     0.6340 ha         1 3NK       0.112000
     26 H8          -1.7650    -2.5310    -0.3310 ha         1 3NK       0.118000
     27 H7          -4.1310    -2.0100    -0.4190 ha         1 3NK       0.120000
     28 H5          -3.2750     2.1500     0.2700 ha         1 3NK       0.131000
     29 H151        -6.1190    -1.2460     0.5200 h1         1 3NK       0.043367
     30 H152        -7.1010     0.0160    -0.2420 h1         1 3NK       0.043367
     31 H4          -0.9120     2.8700     0.5480 ha         1 3NK       0.119000
     32 H153        -6.0640    -1.0120    -1.2430 h1         1 3NK       0.043367
@<TRIPOS>BOND
     1     1     2 1   
     2     1    19 1   
     3     1    20 1   
     4     1    21 1   
     5     2     3 1   
     6     2    18 2   
     7     3     4 1   
     8     3    22 1   
     9     3    23 1   
    10     4     5 2   
    11     4     6 1   
    12     6     7 ar  
    13     6    17 ar  
    14     7     8 ar  
    15     7    24 1   
    16     8     9 ar  
    17     8    15 ar  
    18     9    10 ar  
    19     9    26 1   
    20    10    11 ar  
    21    10    27 1   
    22    11    12 1   
    23    11    14 ar  
    24    12    13 1   
    25    13    29 1   
    26    13    30 1   
    27    13    32 1   
    28    14    15 ar  
    29    14    28 1   
    30    15    16 ar  
    31    16    17 ar  
    32    16    31 1   
    33    17    25 1   
@<TRIPOS>SUBSTRUCTURE
     1 3NK         1 TEMP              0 ****  ****    0 ROOT
