@<TRIPOS>MOLECULE
3NP
   12    11     1     0     0
SMALL
abcg2


@<TRIPOS>ATOM
      1 O1           2.8330    -0.7410    -0.4190 o          1 3NP      -0.725000
      2 O2           2.0670     1.1330     0.5190 o          1 3NP      -0.725000
      3 O4          -2.7110     0.7130    -0.6800 o          1 3NP      -0.443000
      4 O3          -2.2270    -1.0010     0.4910 o          1 3NP      -0.443000
      5 C1           1.9310     0.0190    -0.0210 c          1 3NP       0.727000
      6 C2           0.4900    -0.5020    -0.2070 c3         1 3NP      -0.234400
      7 C3          -0.5430     0.5530     0.1350 c3         1 3NP      -0.000400
      8 N1          -1.9360     0.0470    -0.0370 no         1 3NP       0.569000
      9 H21          0.3590    -0.8380    -1.2390 hc         1 3NP       0.047200
     10 H22          0.3590    -1.3830     0.4260 hc         1 3NP       0.047200
     11 H31         -0.4730     0.8570     1.1790 h1         1 3NP       0.090200
     12 H32         -0.4570     1.4340    -0.4940 h1         1 3NP       0.090200
@<TRIPOS>BOND
     1     1     5 1   
     2     2     5 1   
     3     3     8 1   
     4     4     8 1   
     5     5     6 1   
     6     6     7 1   
     7     6     9 1   
     8     6    10 1   
     9     7     8 1   
    10     7    11 1   
    11     7    12 1   
@<TRIPOS>SUBSTRUCTURE
     1 3NP         1 TEMP              0 ****  ****    0 ROOT
