@<TRIPOS>MOLECULE
3NP
   12    11     1     0     0
SMALL
No Charge or Current Charge


@<TRIPOS>ATOM
      1 O1           2.4820     0.3160    -0.9940 o          1 3NP      -0.725000
      2 O2           2.4010     0.1610     1.1540 o          1 3NP      -0.725000
      3 O4          -2.4670    -0.0400    -1.2240 o          1 3NP      -0.443000
      4 O3          -2.5500    -0.1970     0.9580 o          1 3NP      -0.443000
      5 C1           1.9280    -0.0140     0.0420 c          1 3NP       0.727000
      6 C2           0.5180    -0.5970    -0.0530 c3         1 3NP      -0.234400
      7 C3          -0.5160     0.5600    -0.0090 c3         1 3NP      -0.000400
      8 N1          -1.9630     0.0640    -0.0990 no         1 3NP       0.569000
      9 H21          0.3740    -1.0990    -1.0170 hc         1 3NP       0.047200
     10 H22          0.3040    -1.2310     0.8160 hc         1 3NP       0.047200
     11 H31         -0.4430     1.1200     0.9310 h1         1 3NP       0.090200
     12 H32         -0.3760     1.2490    -0.8510 h1         1 3NP       0.090200
@<TRIPOS>BOND
     1     1     5 1   
     2     2     5 1   
     3     3     8 1   
     4     4     8 1   
     5     5     6 1   
     6     6     7 1   
     7     6     9 1   
     8     6    10 1   
     9     7     8 1   
    10     7    11 1   
    11     7    12 1   
@<TRIPOS>SUBSTRUCTURE
     1 3NP         1 TEMP              0 ****  ****    0 ROOT
