@<TRIPOS>MOLECULE
3NQ
   60    64     1     0     0
SMALL
abcg2


@<TRIPOS>ATOM
      1 C1           3.3320     0.1490    -0.5080 c6         1 3NQ      -0.096000
      2 C3           4.8210    -0.1260    -0.3280 c6         1 3NQ      -0.061400
      3 C4           5.1620    -1.5240    -0.8130 c6         1 3NQ       0.170300
      4 O6           6.5480    -1.7260    -0.6170 oh         1 3NQ      -0.657000
      5 C8           4.3190    -2.5650    -0.0940 c6         1 3NQ      -0.113400
      6 C9           2.8280    -2.2740    -0.2400 c6         1 3NQ      -0.065400
      7 C10          2.4240    -0.8690     0.2370 c6         1 3NQ      -0.029000
      8 C11          2.6120    -0.7620     1.7520 c3         1 3NQ      -0.084100
      9 C12          0.9570    -0.5760    -0.1700 c6         1 3NQ      -0.052700
     10 C13          0.5370     0.8740     0.1420 c6         1 3NQ      -0.038700
     11 C15          1.4890     1.8760    -0.5150 c6         1 3NQ      -0.140700
     12 C16          2.9130     1.5540    -0.1800 c2         1 3NQ       0.387300
     13 N17          3.7750     2.3270     0.3400 n2         1 3NQ      -0.337700
     14 O18          3.3100     3.5920     0.6080 oh         1 3NQ      -0.521000
     15 C20         -0.8830     1.0570    -0.3630 c5         1 3NQ      -0.066700
     16 C22         -1.8900     0.1220     0.3260 c5         1 3NQ      -0.004800
     17 C23         -1.9370     0.2870     1.8540 c3         1 3NQ      -0.081100
     18 C24         -1.5030    -1.3100    -0.0360 c6         1 3NQ      -0.061400
     19 C25         -0.0540    -1.5940     0.3780 c6         1 3NQ      -0.070400
     20 C26         -3.1970     0.7130    -0.1950 ce         1 3NQ      -0.072400
     21 C27         -4.5000     0.0380    -0.1560 ca         1 3NQ      -0.082800
     22 C28         -4.6940    -1.2350    -0.6970 ca         1 3NQ       0.344900
     23 N29         -5.8570    -1.8720    -0.7040 nb         1 3NQ      -0.668000
     24 C30         -6.9070    -1.2650    -0.1640 ca         1 3NQ       0.333900
     25 C31         -6.8380     0.0000     0.4000 ca         1 3NQ      -0.164000
     26 C32         -5.6180     0.6550     0.4060 ca         1 3NQ      -0.069000
     27 C33         -3.0100     1.9970    -0.5190 c2         1 3NQ      -0.209200
     28 C34         -1.5740     2.4200    -0.3660 c5         1 3NQ      -0.042200
     29 H1           3.1070     0.0140    -1.5780 hc         1 3NQ       0.055700
     30 H2           5.3960     0.6090    -0.8960 hc         1 3NQ       0.065200
     31 H3           5.1190    -0.0140     0.7180 hc         1 3NQ       0.065200
     32 H4           4.9210    -1.5780    -1.8880 h1         1 3NQ       0.023700
     33 H5           6.7690    -2.6100    -0.9260 ho         1 3NQ       0.440000
     34 H6           4.5320    -3.5600    -0.4960 hc         1 3NQ       0.046700
     35 H7           4.6030    -2.5920     0.9630 hc         1 3NQ       0.046700
     36 H8           2.5410    -2.3820    -1.2930 hc         1 3NQ       0.041700
     37 H9           2.2690    -3.0350     0.3080 hc         1 3NQ       0.041700
     38 H10          2.3510     0.2230     2.1390 hc         1 3NQ       0.038033
     39 H11          1.9910    -1.4940     2.2710 hc         1 3NQ       0.038033
     40 H12          3.6420    -0.9540     2.0500 hc         1 3NQ       0.038033
     41 H13          0.9240    -0.6640    -1.2680 hc         1 3NQ       0.041700
     42 H14          0.5640     1.0460     1.2240 hc         1 3NQ       0.061700
     43 H15          1.3780     1.8060    -1.6040 hc         1 3NQ       0.063700
     44 H16          1.2190     2.8920    -0.2320 hc         1 3NQ       0.063700
     45 H17          4.0750     4.0410     0.9790 ho         1 3NQ       0.466000
     46 H18         -0.8750     0.7460    -1.4190 hc         1 3NQ       0.047700
     47 H19         -2.1080     1.3250     2.1410 hc         1 3NQ       0.036700
     48 H20         -2.7570    -0.3070     2.2650 hc         1 3NQ       0.036700
     49 H21         -1.0230    -0.0410     2.3490 hc         1 3NQ       0.036700
     50 H22         -2.1630    -2.0410     0.4410 hc         1 3NQ       0.045200
     51 H23         -1.6000    -1.4510    -1.1170 hc         1 3NQ       0.045200
     52 H24          0.2060    -2.5930     0.0250 hc         1 3NQ       0.042700
     53 H25          0.0100    -1.6390     1.4680 hc         1 3NQ       0.042700
     54 H27         -3.8660    -1.7560    -1.1650 h4         1 3NQ       0.021100
     55 H28         -7.8460    -1.8080    -0.1820 h4         1 3NQ       0.019100
     56 H29         -7.7200     0.4560     0.8290 ha         1 3NQ       0.123000
     57 H30         -5.5260     1.6370     0.8540 ha         1 3NQ       0.119000
     58 H31         -3.7970     2.6730    -0.8320 ha         1 3NQ       0.188000
     59 H33         -1.4300     2.9750     0.5700 hc         1 3NQ       0.055200
     60 H34         -1.2310     3.0720    -1.1710 hc         1 3NQ       0.055200
@<TRIPOS>BOND
     1     1     2 1   
     2     1     7 1   
     3     1    12 1   
     4     1    29 1   
     5     2     3 1   
     6     2    30 1   
     7     2    31 1   
     8     3     4 1   
     9     3     5 1   
    10     3    32 1   
    11     4    33 1   
    12     5     6 1   
    13     5    34 1   
    14     5    35 1   
    15     6     7 1   
    16     6    36 1   
    17     6    37 1   
    18     7     8 1   
    19     7     9 1   
    20     8    38 1   
    21     8    39 1   
    22     8    40 1   
    23     9    10 1   
    24     9    19 1   
    25     9    41 1   
    26    10    11 1   
    27    10    15 1   
    28    10    42 1   
    29    11    12 1   
    30    11    43 1   
    31    11    44 1   
    32    12    13 2   
    33    13    14 1   
    34    14    45 1   
    35    15    16 1   
    36    15    28 1   
    37    15    46 1   
    38    16    17 1   
    39    16    18 1   
    40    16    20 1   
    41    17    47 1   
    42    17    48 1   
    43    17    49 1   
    44    18    19 1   
    45    18    50 1   
    46    18    51 1   
    47    19    52 1   
    48    19    53 1   
    49    20    21 1   
    50    20    27 2   
    51    21    22 ar  
    52    21    26 ar  
    53    22    23 ar  
    54    22    54 1   
    55    23    24 ar  
    56    24    25 ar  
    57    24    55 1   
    58    25    26 ar  
    59    25    56 1   
    60    26    57 1   
    61    27    28 1   
    62    27    58 1   
    63    28    59 1   
    64    28    60 1   
@<TRIPOS>SUBSTRUCTURE
     1 3NQ         1 TEMP              0 ****  ****    0 ROOT
