@<TRIPOS>MOLECULE
3NQ
   60    64     1     0     0
SMALL
No Charge or Current Charge


@<TRIPOS>ATOM
      1 C1           3.3610     0.1320    -0.5560 c6         1 3NQ      -0.096000
      2 C3           4.8890    -0.1740    -0.4350 c6         1 3NQ      -0.061400
      3 C4           5.2110    -1.6170    -0.8930 c6         1 3NQ       0.170300
      4 O6           6.6050    -1.8890    -0.7200 oh         1 3NQ      -0.657000
      5 C8           4.3730    -2.6450    -0.1000 c6         1 3NQ      -0.113400
      6 C9           2.8540    -2.3380    -0.1980 c6         1 3NQ      -0.065400
      7 C10          2.4700    -0.8840     0.2570 c6         1 3NQ      -0.029000
      8 C11          2.7160    -0.7390     1.8030 c3         1 3NQ      -0.084100
      9 C12          0.9560    -0.5860    -0.1120 c6         1 3NQ      -0.052700
     10 C13          0.5730     0.9200     0.1550 c6         1 3NQ      -0.038700
     11 C15          1.5290     1.8830    -0.5900 c6         1 3NQ      -0.140700
     12 C16          2.9920     1.5890    -0.2320 c2         1 3NQ       0.387300
     13 N17          3.8440     2.4240     0.2940 n2         1 3NQ      -0.337700
     14 O18          3.3720     3.7300     0.5460 oh         1 3NQ      -0.521000
     15 C20         -0.9370     1.1150    -0.2890 c5         1 3NQ      -0.066700
     16 C22         -1.9710     0.1740     0.4550 c5         1 3NQ      -0.004800
     17 C23         -2.0560     0.3670     2.0010 c3         1 3NQ      -0.081100
     18 C24         -1.5740    -1.2890     0.1200 c6         1 3NQ      -0.061400
     19 C25         -0.0910    -1.5800     0.5310 c6         1 3NQ      -0.070400
     20 C26         -3.2130     0.7690    -0.1930 ce         1 3NQ      -0.072400
     21 C27         -4.5160     0.0520    -0.2500 ca         1 3NQ      -0.082800
     22 C28         -4.6860    -1.1100    -1.0330 ca         1 3NQ       0.344900
     23 N29         -5.8560    -1.7900    -1.1150 nb         1 3NQ      -0.668000
     24 C30         -6.9080    -1.3190    -0.4050 ca         1 3NQ       0.333900
     25 C31         -6.8320    -0.1670     0.3970 ca         1 3NQ      -0.164000
     26 C32         -5.6190     0.5350     0.4770 ca         1 3NQ      -0.069000
     27 C33         -3.1110     2.0710    -0.5210 c2         1 3NQ      -0.209200
     28 C34         -1.6770     2.5060    -0.2510 c5         1 3NQ      -0.042200
     29 H1           3.1210    -0.0040    -1.6200 hc         1 3NQ       0.055700
     30 H2           5.4550     0.5290    -1.0620 hc         1 3NQ       0.065200
     31 H3           5.2410    -0.0170     0.5930 hc         1 3NQ       0.065200
     32 H4           4.9490    -1.7070    -1.9580 h1         1 3NQ       0.023700
     33 H5           6.7580    -2.8010    -1.0530 ho         1 3NQ       0.440000
     34 H6           4.5600    -3.6550    -0.4910 hc         1 3NQ       0.046700
     35 H7           4.6900    -2.6650     0.9510 hc         1 3NQ       0.046700
     36 H8           2.5290    -2.4990    -1.2360 hc         1 3NQ       0.041700
     37 H9           2.3180    -3.0820     0.4050 hc         1 3NQ       0.041700
     38 H10          2.4580     0.2560     2.1790 hc         1 3NQ       0.038033
     39 H11          2.1290    -1.4660     2.3760 hc         1 3NQ       0.038033
     40 H12          3.7610    -0.9070     2.0790 hc         1 3NQ       0.038033
     41 H13          0.8690    -0.7380    -1.1980 hc         1 3NQ       0.041700
     42 H14          0.6380     1.1370     1.2290 hc         1 3NQ       0.061700
     43 H15          1.4020     1.7710    -1.6750 hc         1 3NQ       0.063700
     44 H16          1.2460     2.9180    -0.3650 hc         1 3NQ       0.063700
     45 H17          4.1400     4.2120     0.9370 ho         1 3NQ       0.466000
     46 H18         -0.9100     0.8250    -1.3480 hc         1 3NQ       0.047700
     47 H19         -2.3700     1.3820     2.2680 hc         1 3NQ       0.036700
     48 H20         -2.7920    -0.3190     2.4370 hc         1 3NQ       0.036700
     49 H21         -1.1000     0.1870     2.5040 hc         1 3NQ       0.036700
     50 H22         -2.2530    -1.9950     0.6180 hc         1 3NQ       0.045200
     51 H23         -1.6790    -1.4640    -0.9590 hc         1 3NQ       0.045200
     52 H24          0.1340    -2.6100     0.2260 hc         1 3NQ       0.042700
     53 H25         -0.0060    -1.5730     1.6230 hc         1 3NQ       0.042700
     54 H27         -3.8650    -1.5060    -1.6280 h4         1 3NQ       0.021100
     55 H28         -7.8380    -1.8810    -0.4830 h4         1 3NQ       0.019100
     56 H29         -7.7060     0.1700     0.9460 ha         1 3NQ       0.123000
     57 H30         -5.5330     1.4280     1.0920 ha         1 3NQ       0.119000
     58 H31         -3.9150     2.6900    -0.9230 ha         1 3NQ       0.188000
     59 H33         -1.5810     3.0080     0.7180 hc         1 3NQ       0.055200
     60 H34         -1.3060     3.1930    -1.0210 hc         1 3NQ       0.055200
@<TRIPOS>BOND
     1     1     2 1   
     2     1     7 1   
     3     1    12 1   
     4     1    29 1   
     5     2     3 1   
     6     2    30 1   
     7     2    31 1   
     8     3     4 1   
     9     3     5 1   
    10     3    32 1   
    11     4    33 1   
    12     5     6 1   
    13     5    34 1   
    14     5    35 1   
    15     6     7 1   
    16     6    36 1   
    17     6    37 1   
    18     7     8 1   
    19     7     9 1   
    20     8    38 1   
    21     8    39 1   
    22     8    40 1   
    23     9    10 1   
    24     9    19 1   
    25     9    41 1   
    26    10    11 1   
    27    10    15 1   
    28    10    42 1   
    29    11    12 1   
    30    11    43 1   
    31    11    44 1   
    32    12    13 2   
    33    13    14 1   
    34    14    45 1   
    35    15    16 1   
    36    15    28 1   
    37    15    46 1   
    38    16    17 1   
    39    16    18 1   
    40    16    20 1   
    41    17    47 1   
    42    17    48 1   
    43    17    49 1   
    44    18    19 1   
    45    18    50 1   
    46    18    51 1   
    47    19    52 1   
    48    19    53 1   
    49    20    21 1   
    50    20    27 2   
    51    21    22 ar  
    52    21    26 ar  
    53    22    23 ar  
    54    22    54 1   
    55    23    24 ar  
    56    24    25 ar  
    57    24    55 1   
    58    25    26 ar  
    59    25    56 1   
    60    26    57 1   
    61    27    28 1   
    62    27    58 1   
    63    28    59 1   
    64    28    60 1   
@<TRIPOS>SUBSTRUCTURE
     1 3NQ         1 TEMP              0 ****  ****    0 ROOT
