@<TRIPOS>MOLECULE
3NR
   58    62     1     0     0
SMALL
No Charge or Current Charge


@<TRIPOS>ATOM
      1 C1          -3.3910     0.2690     0.0350 c2         1 3NR      -0.044400
      2 C2          -2.9490     1.5490     0.2340 ce         1 3NR      -0.023900
      3 C3          -3.8400     2.6470     0.4900 cg         1 3NR       0.282700
      4 N4          -4.5280     3.5660     0.7020 n1         1 3NR      -0.463000
      5 C5          -1.4630     1.9320     0.2380 c6         1 3NR      -0.025200
      6 C6          -0.5210     0.8740    -0.3800 c6         1 3NR      -0.040700
      7 C8          -0.9200    -0.5500     0.1320 c6         1 3NR      -0.049700
      8 C9          -2.3990    -0.9070    -0.2920 c6         1 3NR      -0.003800
      9 C10         -2.5270    -1.1670    -1.8330 c3         1 3NR      -0.083100
     10 C11         -2.8680    -2.2030     0.4960 c6         1 3NR      -0.065400
     11 C12         -4.3970    -2.5490     0.4310 c6         1 3NR      -0.113400
     12 C13         -5.2340    -1.3430     0.9030 c6         1 3NR       0.175300
     13 O15         -6.6260    -1.6580     0.8170 oh         1 3NR      -0.656000
     14 C17         -4.9220    -0.0870     0.0550 c6         1 3NR      -0.049200
     15 C18          0.1420    -1.6560    -0.2480 c6         1 3NR      -0.071400
     16 C19          1.6140    -1.2610     0.0850 c6         1 3NR      -0.060400
     17 C20          1.9660     0.1090    -0.5530 c5         1 3NR      -0.004800
     18 C21          2.0030     0.0010    -2.1140 c3         1 3NR      -0.080100
     19 C22          0.9540     1.1570     0.0140 c5         1 3NR      -0.068700
     20 C24          1.6380     2.5130    -0.3340 c5         1 3NR      -0.043200
     21 C25          3.0790     2.1770     0.0160 c2         1 3NR      -0.209200
     22 C26          3.2070     0.8360    -0.0360 ce         1 3NR      -0.068400
     23 C27          4.4970     0.1550     0.3030 ca         1 3NR      -0.079800
     24 C28          4.9510    -0.9880    -0.3950 ca         1 3NR       0.343900
     25 N29          6.1120    -1.6290    -0.1130 nb         1 3NR      -0.668000
     26 C30          6.8710    -1.1430     0.8950 ca         1 3NR       0.334900
     27 C31          6.5030    -0.0160     1.6470 ca         1 3NR      -0.163000
     28 C32          5.3000     0.6460     1.3510 ca         1 3NR      -0.071000
     29 H1          -1.3240     2.8790    -0.3030 hc         1 3NR       0.057200
     30 H2          -1.1680     2.1350     1.2780 hc         1 3NR       0.057200
     31 H3          -0.6140     0.9270    -1.4710 hc         1 3NR       0.060700
     32 H4          -0.9100    -0.4930     1.2300 hc         1 3NR       0.048700
     33 H5          -2.2000    -0.3080    -2.4280 hc         1 3NR       0.039367
     34 H6          -1.9480    -2.0390    -2.1570 hc         1 3NR       0.039367
     35 H7          -3.5630    -1.3690    -2.1260 hc         1 3NR       0.039367
     36 H8          -2.3080    -3.0780     0.1420 hc         1 3NR       0.045700
     37 H9          -2.5980    -2.0910     1.5560 hc         1 3NR       0.045700
     38 H10         -4.6770    -2.8310    -0.5940 hc         1 3NR       0.049200
     39 H11         -4.6020    -3.4230     1.0640 hc         1 3NR       0.049200
     40 H12         -4.9670    -1.1240     1.9480 h1         1 3NR       0.033700
     41 H13         -6.7760    -2.4310     1.4050 ho         1 3NR       0.444000
     42 H14         -5.5380     0.7330     0.4390 hc         1 3NR       0.070700
     43 H15         -5.2650    -0.2490    -0.9760 hc         1 3NR       0.070700
     44 H16         -0.0840    -2.5890     0.2840 hc         1 3NR       0.042200
     45 H17          0.0830    -1.9040    -1.3140 hc         1 3NR       0.042200
     46 H18          1.7410    -1.2080     1.1760 hc         1 3NR       0.047200
     47 H19          2.2980    -2.0440    -0.2670 hc         1 3NR       0.047200
     48 H20          2.6850    -0.7870    -2.4480 hc         1 3NR       0.036700
     49 H21          1.0240    -0.2290    -2.5450 hc         1 3NR       0.036700
     50 H22          2.3450     0.9330    -2.5790 hc         1 3NR       0.036700
     51 H23          0.9450     1.0790     1.1110 hc         1 3NR       0.049700
     52 H24          1.5260     2.7910    -1.3890 hc         1 3NR       0.055200
     53 H25          1.2530     3.3410     0.2720 hc         1 3NR       0.055200
     54 H26          3.8530     2.8850     0.3170 ha         1 3NR       0.189000
     55 H29          4.3780    -1.4110    -1.2150 h4         1 3NR       0.020100
     56 H30          7.7990    -1.6730     1.1060 h4         1 3NR       0.019100
     57 H31          7.1460     0.3340     2.4500 ha         1 3NR       0.124000
     58 H32          4.9970     1.5130     1.9330 ha         1 3NR       0.119000
@<TRIPOS>BOND
     1     1     2 2   
     2     1     8 1   
     3     1    14 1   
     4     2     3 1   
     5     2     5 1   
     6     3     4 3   
     7     5     6 1   
     8     5    29 1   
     9     5    30 1   
    10     6     7 1   
    11     6    19 1   
    12     6    31 1   
    13     7     8 1   
    14     7    15 1   
    15     7    32 1   
    16     8     9 1   
    17     8    10 1   
    18     9    33 1   
    19     9    34 1   
    20     9    35 1   
    21    10    11 1   
    22    10    36 1   
    23    10    37 1   
    24    11    12 1   
    25    11    38 1   
    26    11    39 1   
    27    12    13 1   
    28    12    14 1   
    29    12    40 1   
    30    13    41 1   
    31    14    42 1   
    32    14    43 1   
    33    15    16 1   
    34    15    44 1   
    35    15    45 1   
    36    16    17 1   
    37    16    46 1   
    38    16    47 1   
    39    17    18 1   
    40    17    19 1   
    41    17    22 1   
    42    18    48 1   
    43    18    49 1   
    44    18    50 1   
    45    19    20 1   
    46    19    51 1   
    47    20    21 1   
    48    20    52 1   
    49    20    53 1   
    50    21    22 2   
    51    21    54 1   
    52    22    23 1   
    53    23    24 ar  
    54    23    28 ar  
    55    24    25 ar  
    56    24    55 1   
    57    25    26 ar  
    58    26    27 ar  
    59    26    56 1   
    60    27    28 ar  
    61    27    57 1   
    62    28    58 1   
@<TRIPOS>SUBSTRUCTURE
     1 3NR         1 TEMP              0 ****  ****    0 ROOT
