@<TRIPOS>MOLECULE
3NR
   58    62     1     0     0
SMALL
bcc


@<TRIPOS>ATOM
      1 C1          -3.3450     0.2280    -0.0410 c2         1 3NR      -0.044400
      2 C2          -2.9160     1.4740     0.2200 ce         1 3NR      -0.023900
      3 C3          -3.8550     2.5210     0.4690 cg         1 3NR       0.193500
      4 N4          -4.5630     3.4060     0.6880 n1         1 3NR      -0.373800
      5 C5          -1.4760     1.9030     0.2820 c6         1 3NR      -0.025200
      6 C6          -0.5400     0.8630    -0.3150 c6         1 3NR      -0.040700
      7 C8          -0.9450    -0.5330     0.1800 c6         1 3NR      -0.049700
      8 C9          -2.3750    -0.9170    -0.2790 c6         1 3NR      -0.003800
      9 C10         -2.4150    -1.2570    -1.7800 c3         1 3NR      -0.083100
     10 C11         -2.8450    -2.1320     0.5530 c6         1 3NR      -0.065400
     11 C12         -4.3180    -2.4770     0.3950 c6         1 3NR      -0.113400
     12 C13         -5.1830    -1.2800     0.7470 c6         1 3NR       0.152100
     13 O15         -6.5590    -1.5230     0.5610 oh         1 3NR      -0.593800
     14 C17         -4.8090    -0.0990    -0.1390 c6         1 3NR      -0.049200
     15 C18          0.0960    -1.6170    -0.1450 c6         1 3NR      -0.071400
     16 C19          1.5380    -1.2410     0.2110 c6         1 3NR      -0.060400
     17 C20          1.9010     0.1050    -0.4110 c5         1 3NR      -0.004800
     18 C21          1.9000     0.0270    -1.9480 c3         1 3NR      -0.080100
     19 C22          0.8870     1.1320     0.1200 c5         1 3NR      -0.068700
     20 C24          1.5570     2.4810    -0.1340 c5         1 3NR      -0.043200
     21 C25          2.9940     2.1100     0.1060 c2         1 3NR      -0.159200
     22 C26          3.1960     0.7870     0.0250 ce         1 3NR      -0.068400
     23 C27          4.4820     0.1250     0.2580 ca         1 3NR      -0.145100
     24 C28          4.8560    -1.0590    -0.3830 ca         1 3NR       0.409200
     25 N29          6.0160    -1.6750    -0.1980 nb         1 3NR      -0.668000
     26 C30          6.8840    -1.1400     0.6510 ca         1 3NR       0.400200
     27 C31          6.6250     0.0310     1.3500 ca         1 3NR      -0.246300
     28 C32          5.4100     0.6620     1.1550 ca         1 3NR      -0.089000
     29 H1          -1.3620     2.8560    -0.2400 hc         1 3NR       0.057200
     30 H2          -1.2060     2.0970     1.3260 hc         1 3NR       0.057200
     31 H3          -0.6210     0.9160    -1.4060 hc         1 3NR       0.060700
     32 H4          -0.9840    -0.4580     1.2770 hc         1 3NR       0.048700
     33 H5          -2.0140    -0.4420    -2.3840 hc         1 3NR       0.039367
     34 H6          -1.8340    -2.1530    -1.9960 hc         1 3NR       0.039367
     35 H7          -3.4270    -1.4480    -2.1330 hc         1 3NR       0.039367
     36 H8          -2.2410    -3.0010     0.2860 hc         1 3NR       0.045700
     37 H9          -2.6390    -1.9290     1.6100 hc         1 3NR       0.045700
     38 H10         -4.5390    -2.7930    -0.6290 hc         1 3NR       0.049200
     39 H11         -4.5620    -3.3210     1.0470 hc         1 3NR       0.049200
     40 H12         -4.9790    -1.0010     1.7930 h1         1 3NR       0.033700
     41 H13         -6.8140    -2.2540     1.1330 ho         1 3NR       0.405000
     42 H14         -5.4240     0.7650     0.1170 hc         1 3NR       0.070700
     43 H15         -5.0510    -0.3560    -1.1770 hc         1 3NR       0.070700
     44 H16         -0.1650    -2.5350     0.3870 hc         1 3NR       0.042200
     45 H17          0.0570    -1.8740    -1.2050 hc         1 3NR       0.042200
     46 H18          1.6510    -1.1760     1.2980 hc         1 3NR       0.047200
     47 H19          2.2000    -2.0430    -0.1240 hc         1 3NR       0.047200
     48 H20          2.6690    -0.6570    -2.3070 hc         1 3NR       0.036700
     49 H21          0.9520    -0.3240    -2.3550 hc         1 3NR       0.036700
     50 H22          2.1030     1.0020    -2.3920 hc         1 3NR       0.036700
     51 H23          0.8990     1.0080     1.2140 hc         1 3NR       0.049700
     52 H24          1.4030     2.8450    -1.1570 hc         1 3NR       0.055200
     53 H25          1.2050     3.2700     0.5330 hc         1 3NR       0.055200
     54 H26          3.7680     2.8440     0.2960 ha         1 3NR       0.139000
     55 H29          4.1890    -1.5310    -1.0950 h4         1 3NR       0.020100
     56 H30          7.8230    -1.6640     0.7860 h4         1 3NR       0.019100
     57 H31          7.3560     0.4300     2.0400 ha         1 3NR       0.142000
     58 H32          5.1730     1.5640     1.7050 ha         1 3NR       0.137000
@<TRIPOS>BOND
     1     1     2 2   
     2     1     8 1   
     3     1    14 1   
     4     2     3 1   
     5     2     5 1   
     6     3     4 3   
     7     5     6 1   
     8     5    29 1   
     9     5    30 1   
    10     6     7 1   
    11     6    19 1   
    12     6    31 1   
    13     7     8 1   
    14     7    15 1   
    15     7    32 1   
    16     8     9 1   
    17     8    10 1   
    18     9    33 1   
    19     9    34 1   
    20     9    35 1   
    21    10    11 1   
    22    10    36 1   
    23    10    37 1   
    24    11    12 1   
    25    11    38 1   
    26    11    39 1   
    27    12    13 1   
    28    12    14 1   
    29    12    40 1   
    30    13    41 1   
    31    14    42 1   
    32    14    43 1   
    33    15    16 1   
    34    15    44 1   
    35    15    45 1   
    36    16    17 1   
    37    16    46 1   
    38    16    47 1   
    39    17    18 1   
    40    17    19 1   
    41    17    22 1   
    42    18    48 1   
    43    18    49 1   
    44    18    50 1   
    45    19    20 1   
    46    19    51 1   
    47    20    21 1   
    48    20    52 1   
    49    20    53 1   
    50    21    22 2   
    51    21    54 1   
    52    22    23 1   
    53    23    24 ar  
    54    23    28 ar  
    55    24    25 ar  
    56    24    55 1   
    57    25    26 ar  
    58    26    27 ar  
    59    26    56 1   
    60    27    28 ar  
    61    27    57 1   
    62    28    58 1   
@<TRIPOS>SUBSTRUCTURE
     1 3NR         1 TEMP              0 ****  ****    0 ROOT
