@<TRIPOS>MOLECULE
3NS
   59    60     1     0     0
SMALL
abcg2


@<TRIPOS>ATOM
      1 C1          -3.5920     0.8730     1.2340 c3         1 3NS       0.050600
      2 C2          -2.7000     1.4990     0.1590 c3         1 3NS       0.083000
      3 N1          -1.3350     1.6100     0.6050 ns         1 3NS      -0.517900
      4 C14         -6.5530    -0.4630    -0.3350 ca         1 3NS       0.066400
      5 C15         -7.1760    -1.4540    -1.0920 ca         1 3NS      -0.062000
      6 C16         -6.4050    -2.5160    -1.5320 ca         1 3NS      -0.136000
      7 C17         -5.0370    -2.5990    -1.2360 ca         1 3NS      -0.099000
      8 C18         -4.3980    -1.6240    -0.4850 ca         1 3NS      -0.102000
      9 C19         -5.1850    -0.5680    -0.0420 ca         1 3NS      -0.079200
     10 N3          -7.0630     0.6850     0.2240 nc         1 3NS      -0.585100
     11 N4          -4.8970     0.5390     0.7170 na         1 3NS      -0.178600
     12 C20         -6.0560     1.2530     0.8330 cd         1 3NS       0.416800
     13 C21         -6.1240     2.5310     1.5840 c3         1 3NS      -0.110400
     14 C3          -0.4780     0.5740     0.5710 c          1 3NS       0.593100
     15 O1          -0.7910    -0.5220     0.1240 o          1 3NS      -0.605100
     16 C4           0.9050     0.8440     1.1200 c3         1 3NS      -0.140400
     17 C5           1.9810     0.5810     0.0640 c3         1 3NS      -0.134700
     18 C6           1.9020     1.5820    -1.1140 c3         1 3NS      -0.053700
     19 C7           3.3540     0.5830     0.7190 c          1 3NS       0.603100
     20 O2           3.6120     1.2880     1.6880 o          1 3NS      -0.650100
     21 C8           2.2490     3.0140    -0.7240 c3         1 3NS      -0.090600
     22 C9           2.7410     1.1360    -2.3100 c3         1 3NS      -0.090600
     23 C13          6.4590     0.8260    -0.0210 c3         1 3NS       0.129600
     24 N2           4.2510    -0.2360     0.1550 ns         1 3NS      -0.452900
     25 C10          5.6440    -0.3250     0.5520 c3         1 3NS       0.129700
     26 C11          6.1800    -1.6930     0.1610 c3         1 3NS      -0.224400
     27 C12          5.5030    -2.8590     0.9080 c          1 3NS       0.714000
     28 O3           5.3460    -3.9170     0.2660 o          1 3NS      -0.732500
     29 O4           5.1990    -2.6630     2.1010 o          1 3NS      -0.732500
     30 H1          -3.1310    -0.0380     1.6170 h1         1 3NS       0.067700
     31 H1A         -3.7030     1.5530     2.0770 h1         1 3NS       0.067700
     32 H2          -2.7350     0.8970    -0.7500 h1         1 3NS       0.061200
     33 H2A         -3.0610     2.4950    -0.0970 h1         1 3NS       0.061200
     34 HN1         -1.0310     2.4850     1.0000 hn         1 3NS       0.316500
     35 H16         -6.8640    -3.3000    -2.1200 ha         1 3NS       0.107000
     36 H17         -4.4660    -3.4410    -1.6050 ha         1 3NS       0.116000
     37 H18         -3.3380    -1.6820    -0.2690 ha         1 3NS       0.146000
     38 H21         -5.4580     3.2830     1.1570 hc         1 3NS       0.054367
     39 H21A        -7.1400     2.9170     1.5520 hc         1 3NS       0.054367
     40 H21B        -5.8390     2.3970     2.6280 hc         1 3NS       0.054367
     41 H4           0.9870     1.8580     1.5140 hc         1 3NS       0.076200
     42 H4A          1.0450     0.1660     1.9660 hc         1 3NS       0.076200
     43 H5           1.7970    -0.4160    -0.3500 hc         1 3NS       0.085700
     44 H6           0.8580     1.5720    -1.4450 hc         1 3NS       0.036700
     45 H8           3.2990     3.1160    -0.4440 hc         1 3NS       0.035033
     46 H8A          2.0700     3.6830    -1.5660 hc         1 3NS       0.035033
     47 H8B          1.6470     3.3780     0.1100 hc         1 3NS       0.035033
     48 H9           2.4990     0.1130    -2.6070 hc         1 3NS       0.035033
     49 H9A          2.5440     1.7810    -3.1670 hc         1 3NS       0.035033
     50 H9B          3.8120     1.1830    -2.1060 hc         1 3NS       0.035033
     51 H13          6.0410     1.7730     0.3380 h1         1 3NS       0.017700
     52 H13A         7.4800     0.7540     0.3800 h1         1 3NS       0.017700
     53 HN2          3.9700    -0.7500    -0.6650 hn         1 3NS       0.319500
     54 HO5          6.7730     1.5990    -1.7710 ho         1 3NS       0.419000
     55 H10          5.6900    -0.2400     1.6390 h1         1 3NS       0.097700
     56 H11          6.1060    -1.8410    -0.9190 hc         1 3NS       0.033200
     57 H11A         7.2510    -1.7190     0.3950 hc         1 3NS       0.033200
     58 O5           6.4500     0.7610    -1.4300 oh         1 3NS      -0.661000
     59 H15         -8.2320    -1.3920    -1.3270 ha         1 3NS       0.120000
@<TRIPOS>BOND
     1     1     2 1   
     2     1    11 1   
     3     1    30 1   
     4     1    31 1   
     5     2     3 1   
     6     2    32 1   
     7     2    33 1   
     8     3    14 1   
     9     3    34 1   
    10     4     5 ar  
    11     4     9 ar  
    12     4    10 1   
    13     5     6 ar  
    14     5    59 1   
    15     6     7 ar  
    16     6    35 1   
    17     7     8 ar  
    18     7    36 1   
    19     8     9 ar  
    20     8    37 1   
    21     9    11 1   
    22    10    12 2   
    23    11    12 1   
    24    12    13 1   
    25    13    38 1   
    26    13    39 1   
    27    13    40 1   
    28    14    15 2   
    29    14    16 1   
    30    16    17 1   
    31    16    41 1   
    32    16    42 1   
    33    17    18 1   
    34    17    19 1   
    35    17    43 1   
    36    18    21 1   
    37    18    22 1   
    38    18    44 1   
    39    19    20 2   
    40    19    24 1   
    41    21    45 1   
    42    21    46 1   
    43    21    47 1   
    44    22    48 1   
    45    22    49 1   
    46    22    50 1   
    47    23    25 1   
    48    23    51 1   
    49    23    52 1   
    50    23    58 1   
    51    24    25 1   
    52    24    53 1   
    53    25    26 1   
    54    25    55 1   
    55    26    27 1   
    56    26    56 1   
    57    26    57 1   
    58    27    28 1   
    59    27    29 1   
    60    54    58 1   
@<TRIPOS>SUBSTRUCTURE
     1 3NS         1 TEMP              0 ****  ****    0 ROOT
