@<TRIPOS>MOLECULE
3NS
   59    60     1     0     0
SMALL
No Charge or Current Charge


@<TRIPOS>ATOM
      1 C1          -3.5000     0.4870     1.1780 c3         1 3NS       0.050600
      2 C2          -2.6390     1.2620     0.1610 c3         1 3NS       0.083000
      3 N1          -1.2340     1.3680     0.5730 ns         1 3NS      -0.517900
      4 C14         -6.7240    -0.3370    -0.2990 ca         1 3NS       0.066400
      5 C15         -7.4860    -1.1410    -1.1600 ca         1 3NS      -0.062000
      6 C16         -6.8420    -2.1890    -1.8540 ca         1 3NS      -0.136000
      7 C17         -5.4570    -2.4160    -1.6800 ca         1 3NS      -0.099000
      8 C18         -4.7080    -1.5970    -0.8100 ca         1 3NS      -0.102000
      9 C19         -5.3840    -0.5670    -0.1370 ca         1 3NS      -0.079200
     10 N3          -7.1620     0.7360     0.4630 nc         1 3NS      -0.585100
     11 N4          -4.9030     0.3570     0.7500 na         1 3NS      -0.178600
     12 C20         -6.0300     1.1290     1.0780 cd         1 3NS       0.416800
     13 C21         -6.0010     2.3000     2.0210 c3         1 3NS      -0.110400
     14 C3          -0.3300     0.3290     0.5450 c          1 3NS       0.593100
     15 O1          -0.6390    -0.7950     0.1790 o          1 3NS      -0.605100
     16 C4           1.0810     0.6760     1.0330 c3         1 3NS      -0.140400
     17 C5           2.1410     0.6780    -0.1140 c3         1 3NS      -0.134700
     18 C6           1.8270     1.6630    -1.2930 c3         1 3NS      -0.053700
     19 C7           3.5680     0.8520     0.4580 c          1 3NS       0.603100
     20 O2           3.9170     1.8340     1.1000 o          1 3NS      -0.650100
     21 C8           1.7080     3.1520    -0.8800 c3         1 3NS      -0.090600
     22 C9           2.8350     1.5020    -2.4560 c3         1 3NS      -0.090600
     23 C13          6.7270     0.6170    -0.3200 c3         1 3NS       0.129600
     24 N2           4.4240    -0.1980     0.2180 ns         1 3NS      -0.452900
     25 C10          5.8330    -0.2410     0.6240 c3         1 3NS       0.129700
     26 C11          6.3290    -1.7020     0.7660 c3         1 3NS      -0.224400
     27 C12          5.5150    -2.4400     1.8340 c          1 3NS       0.714000
     28 O3           4.5290    -3.0670     1.4800 o          1 3NS      -0.732500
     29 O4           5.8760    -2.3410     2.9970 o          1 3NS      -0.732500
     30 H1          -3.0830    -0.5170     1.3260 h1         1 3NS       0.067700
     31 H1A         -3.4680     1.0030     2.1460 h1         1 3NS       0.067700
     32 H2          -2.6850     0.7600    -0.8150 h1         1 3NS       0.061200
     33 H2A         -3.0460     2.2750     0.0370 h1         1 3NS       0.061200
     34 HN1         -0.8910     2.2650     0.8960 hn         1 3NS       0.316500
     35 H16         -7.4140    -2.8240    -2.5270 ha         1 3NS       0.107000
     36 H17         -4.9670    -3.2250    -2.2190 ha         1 3NS       0.116000
     37 H18         -3.6420    -1.7640    -0.6700 ha         1 3NS       0.146000
     38 H21         -5.2600     3.0410     1.7000 hc         1 3NS       0.054367
     39 H21A        -6.9750     2.8010     2.0690 hc         1 3NS       0.054367
     40 H21B        -5.7400     1.9760     3.0350 hc         1 3NS       0.054367
     41 H4           1.0800     1.6530     1.5310 hc         1 3NS       0.076200
     42 H4A          1.3750    -0.0880     1.7630 hc         1 3NS       0.076200
     43 H5           2.1070    -0.3250    -0.5590 hc         1 3NS       0.085700
     44 H6           0.8490     1.3760    -1.7000 hc         1 3NS       0.036700
     45 H8           2.6600     3.5390    -0.4990 hc         1 3NS       0.035033
     46 H8A          1.4220     3.7640    -1.7430 hc         1 3NS       0.035033
     47 H8B          0.9420     3.2970    -0.1100 hc         1 3NS       0.035033
     48 H9           2.8890     0.4560    -2.7830 hc         1 3NS       0.035033
     49 H9A          2.5290     2.1070    -3.3180 hc         1 3NS       0.035033
     50 H9B          3.8410     1.8210    -2.1570 hc         1 3NS       0.035033
     51 H13          6.3980     1.6640    -0.2670 h1         1 3NS       0.017700
     52 H13A         7.7630     0.5830     0.0410 h1         1 3NS       0.017700
     53 HN2          4.0600    -0.9780    -0.3140 hn         1 3NS       0.319500
     54 HO5          7.2540     0.7360    -2.2090 ho         1 3NS       0.419000
     55 H10          5.9020     0.2180     1.6210 h1         1 3NS       0.097700
     56 H11          6.2000    -2.1780    -0.2140 hc         1 3NS       0.033200
     57 H11A         7.3750    -1.6240     1.0840 hc         1 3NS       0.033200
     58 O5           6.6620     0.1560    -1.6810 oh         1 3NS      -0.661000
     59 H15         -8.5490    -0.9600    -1.2900 ha         1 3NS       0.120000
@<TRIPOS>BOND
     1     1     2 1   
     2     1    11 1   
     3     1    30 1   
     4     1    31 1   
     5     2     3 1   
     6     2    32 1   
     7     2    33 1   
     8     3    14 1   
     9     3    34 1   
    10     4     5 ar  
    11     4     9 ar  
    12     4    10 1   
    13     5     6 ar  
    14     5    59 1   
    15     6     7 ar  
    16     6    35 1   
    17     7     8 ar  
    18     7    36 1   
    19     8     9 ar  
    20     8    37 1   
    21     9    11 1   
    22    10    12 2   
    23    11    12 1   
    24    12    13 1   
    25    13    38 1   
    26    13    39 1   
    27    13    40 1   
    28    14    15 2   
    29    14    16 1   
    30    16    17 1   
    31    16    41 1   
    32    16    42 1   
    33    17    18 1   
    34    17    19 1   
    35    17    43 1   
    36    18    21 1   
    37    18    22 1   
    38    18    44 1   
    39    19    20 2   
    40    19    24 1   
    41    21    45 1   
    42    21    46 1   
    43    21    47 1   
    44    22    48 1   
    45    22    49 1   
    46    22    50 1   
    47    23    25 1   
    48    23    51 1   
    49    23    52 1   
    50    23    58 1   
    51    24    25 1   
    52    24    53 1   
    53    25    26 1   
    54    25    55 1   
    55    26    27 1   
    56    26    56 1   
    57    26    57 1   
    58    27    28 1   
    59    27    29 1   
    60    54    58 1   
@<TRIPOS>SUBSTRUCTURE
     1 3NS         1 TEMP              0 ****  ****    0 ROOT
