@<TRIPOS>MOLECULE
3NT
   17    17     1     0     0
SMALL
abcg2


@<TRIPOS>ATOM
      1 C1           1.8140    -0.4980    -0.0260 ca         1 3NT      -0.081300
      2 C2           0.4710    -0.8560    -0.0260 ca         1 3NT      -0.051000
      3 C3          -0.5030     0.1310    -0.0020 ca         1 3NT      -0.173200
      4 C4          -0.1850     1.4800     0.0190 ca         1 3NT      -0.051000
      5 C5           1.1540     1.8330     0.0150 ca         1 3NT      -0.118000
      6 C6           2.1390     0.8570    -0.0090 ca         1 3NT      -0.071000
      7 C7           2.8840    -1.5490    -0.0250 c3         1 3NT      -0.050800
      8 N3          -1.9050    -0.2640    -0.0050 no         1 3NT       0.693200
      9 O1N         -2.7420     0.6080     0.0090 o          1 3NT      -0.399500
     10 O2N         -2.1650    -1.4440    -0.0200 o          1 3NT      -0.399500
     11 H2           0.1960    -1.9020    -0.0460 ha         1 3NT       0.150000
     12 H4          -0.9510     2.2420     0.0340 ha         1 3NT       0.152000
     13 H5           1.4280     2.8800     0.0270 ha         1 3NT       0.128000
     14 H6           3.1810     1.1530    -0.0170 ha         1 3NT       0.122000
     15 H7C1         3.1730    -1.8030     0.9970 hc         1 3NT       0.050367
     16 H7C2         2.5450    -2.4660    -0.5060 hc         1 3NT       0.050367
     17 H7C3         3.7790    -1.2060    -0.5400 hc         1 3NT       0.050367
@<TRIPOS>BOND
     1     1     2 ar  
     2     1     6 ar  
     3     1     7 1   
     4     2     3 ar  
     5     2    11 1   
     6     3     4 ar  
     7     3     8 1   
     8     4     5 ar  
     9     4    12 1   
    10     5     6 ar  
    11     5    13 1   
    12     6    14 1   
    13     7    15 1   
    14     7    16 1   
    15     7    17 1   
    16     8     9 1   
    17     8    10 1   
@<TRIPOS>SUBSTRUCTURE
     1 3NT         1 TEMP              0 ****  ****    0 ROOT
