@<TRIPOS>MOLECULE
3NT
   17    17     1     0     0
SMALL
No Charge or Current Charge


@<TRIPOS>ATOM
      1 C1           1.8320    -0.4910    -0.0180 ca         1 3NT      -0.081300
      2 C2           0.4730    -0.8630    -0.0100 ca         1 3NT      -0.051000
      3 C3          -0.5450     0.1220     0.0010 ca         1 3NT      -0.173200
      4 C4          -0.1780     1.4880     0.0040 ca         1 3NT      -0.051000
      5 C5           1.1780     1.8560    -0.0020 ca         1 3NT      -0.118000
      6 C6           2.1800     0.8720    -0.0120 ca         1 3NT      -0.071000
      7 C7           2.9160    -1.5580    -0.0260 c3         1 3NT      -0.050800
      8 N3          -1.9900    -0.2780     0.0090 no         1 3NT       0.693200
      9 O1N         -2.8450     0.6180     0.0190 o          1 3NT      -0.399500
     10 O2N         -2.2650    -1.4860     0.0050 o          1 3NT      -0.399500
     11 H2           0.2170    -1.9210    -0.0100 ha         1 3NT       0.150000
     12 H4          -0.9350     2.2710     0.0120 ha         1 3NT       0.152000
     13 H5           1.4540     2.9090     0.0020 ha         1 3NT       0.128000
     14 H6           3.2260     1.1700    -0.0140 ha         1 3NT       0.122000
     15 H7C1         3.1380    -1.8970     0.9930 hc         1 3NT       0.050367
     16 H7C2         2.6100    -2.4340    -0.6100 hc         1 3NT       0.050367
     17 H7C3         3.8480    -1.1820    -0.4640 hc         1 3NT       0.050367
@<TRIPOS>BOND
     1     1     2 ar  
     2     1     6 ar  
     3     1     7 1   
     4     2     3 ar  
     5     2    11 1   
     6     3     4 ar  
     7     3     8 1   
     8     4     5 ar  
     9     4    12 1   
    10     5     6 ar  
    11     5    13 1   
    12     6    14 1   
    13     7    15 1   
    14     7    16 1   
    15     7    17 1   
    16     8     9 1   
    17     8    10 1   
@<TRIPOS>SUBSTRUCTURE
     1 3NT         1 TEMP              0 ****  ****    0 ROOT
