@<TRIPOS>MOLECULE
3NU
   46    48     1     0     0
SMALL
No Charge or Current Charge


@<TRIPOS>ATOM
      1 C1          -3.2080    -0.6100     0.3510 cc         1 3NU      -0.282500
      2 N1          -5.2060    -0.7900     1.2230 na         1 3NU       0.002800
      3 C2          -4.0980    -1.5370     0.8150 cd         1 3NU      -0.142000
      4 N2          -5.0190     0.5800     1.0450 nd         1 3NU      -0.531800
      5 C3          -3.8020     0.6630     0.5350 cc         1 3NU       0.311300
      6 N3           0.6750    -1.8070    -0.8490 nb         1 3NU      -0.254000
      7 C4           0.3730    -0.6040    -0.3270 ca         1 3NU       0.393900
      8 N4          -0.8400    -0.1740     0.0510 nb         1 3NU      -0.265000
      9 C5          -1.8770    -1.0180    -0.1180 ca         1 3NU       0.279500
     10 N5           1.4000     0.3150    -0.1520 nu         1 3NU      -0.923100
     11 C6          -1.6550    -2.3130    -0.6270 ca         1 3NU      -0.296000
     12 N6           5.6380     0.4150     0.5140 n3         1 3NU      -0.716600
     13 C7          -0.3480    -2.6660    -0.9950 ca         1 3NU       0.150900
     14 C8          -3.1570     1.9860     0.1460 c3         1 3NU      -0.094000
     15 C9          -3.0690     2.1420    -1.3910 c3         1 3NU      -0.082100
     16 C10         -3.8400     3.2230     0.7840 c3         1 3NU      -0.082100
     17 C11          2.8390     0.0620    -0.3510 c6         1 3NU       0.247500
     18 C12          3.5820     1.4050    -0.5200 c6         1 3NU      -0.093400
     19 C13          5.1030     1.1680    -0.6520 c6         1 3NU       0.167800
     20 C14          4.9500    -0.8930     0.6900 c6         1 3NU       0.167800
     21 C15          3.4240    -0.7110     0.8540 c6         1 3NU      -0.093400
     22 H2          -4.0460    -2.6170     0.9000 h4         1 3NU       0.155000
     23 HN5          1.1160     1.2030     0.2610 hn         1 3NU       0.501000
     24 H6          -2.4670    -3.0220    -0.7550 ha         1 3NU       0.126000
     25 H7          -0.1180    -3.6470    -1.4080 h4         1 3NU       0.015100
     26 H8          -2.1340     1.9910     0.5360 hc         1 3NU       0.081700
     27 H9          -2.5510     3.0700    -1.6590 hc         1 3NU       0.035533
     28 H9A         -2.5190     1.3070    -1.8400 hc         1 3NU       0.035533
     29 H9B         -4.0720     2.1660    -1.8350 hc         1 3NU       0.035533
     30 H10         -3.8660     3.1310     1.8760 hc         1 3NU       0.035533
     31 H10A        -3.2890     4.1390     0.5370 hc         1 3NU       0.035533
     32 H10B        -4.8680     3.3380     0.4210 hc         1 3NU       0.035533
     33 H11          3.0020    -0.5280    -1.2680 h1         1 3NU       0.075700
     34 H12          3.2120     1.9310    -1.4100 hc         1 3NU       0.054700
     35 H12A         3.3890     2.0590     0.3420 hc         1 3NU       0.054700
     36 H13          5.6050     2.1440    -0.7380 h1         1 3NU       0.033200
     37 H13A         5.3030     0.6190    -1.5850 h1         1 3NU       0.033200
     38 H14          5.1430    -1.5440    -0.1760 h1         1 3NU       0.033200
     39 H14A         5.3390    -1.4120     1.5780 h1         1 3NU       0.033200
     40 H15          3.2190    -0.1690     1.7870 hc         1 3NU       0.054700
     41 H15A         2.9460    -1.6940     0.9460 hc         1 3NU       0.054700
     42 H16          7.5920     1.2570     0.4010 h1         1 3NU       0.030033
     43 H16A         7.4820    -0.2280     1.3680 h1         1 3NU       0.030033
     44 H16B         7.4170    -0.3190    -0.4090 h1         1 3NU       0.030033
     45 HN1         -6.0690    -1.1630     1.6160 hn         1 3NU       0.373000
     46 C16          7.1090     0.2730     0.4640 c3         1 3NU       0.152100
@<TRIPOS>BOND
     1     1     3 2   
     2     1     5 1   
     3     1     9 1   
     4     2     3 1   
     5     2     4 1   
     6     2    45 1   
     7     3    22 1   
     8     4     5 2   
     9     5    14 1   
    10     6     7 ar  
    11     6    13 ar  
    12     7     8 ar  
    13     7    10 1   
    14     8     9 ar  
    15     9    11 ar  
    16    10    17 1   
    17    10    23 1   
    18    11    13 ar  
    19    11    24 1   
    20    12    19 1   
    21    12    20 1   
    22    12    46 1   
    23    13    25 1   
    24    14    15 1   
    25    14    16 1   
    26    14    26 1   
    27    15    27 1   
    28    15    28 1   
    29    15    29 1   
    30    16    30 1   
    31    16    31 1   
    32    16    32 1   
    33    17    18 1   
    34    17    21 1   
    35    17    33 1   
    36    18    19 1   
    37    18    34 1   
    38    18    35 1   
    39    19    36 1   
    40    19    37 1   
    41    20    21 1   
    42    20    38 1   
    43    20    39 1   
    44    21    40 1   
    45    21    41 1   
    46    42    46 1   
    47    43    46 1   
    48    44    46 1   
@<TRIPOS>SUBSTRUCTURE
     1 3NU         1 TEMP              0 ****  ****    0 ROOT
