@<TRIPOS>MOLECULE
3NU
   46    48     1     0     0
SMALL
bcc


@<TRIPOS>ATOM
      1 C1          -3.1770    -0.6700     0.2210 cc         1 3NU      -0.347800
      2 N1          -5.3210    -0.7090     0.5940 na         1 3NU       0.002400
      3 C2          -4.2700    -1.5020     0.3940 cd         1 3NU      -0.109300
      4 N2          -5.0130     0.5850     0.5640 nd         1 3NU      -0.531800
      5 C3          -3.7140     0.6430     0.3440 cc         1 3NU       0.376600
      6 N3           0.7640    -1.9010    -0.5390 nb         1 3NU      -0.780000
      7 C4           0.4180    -0.6620    -0.1800 ca         1 3NU       0.919900
      8 N4          -0.8280    -0.2440     0.0810 nb         1 3NU      -0.791000
      9 C5          -1.8170    -1.1170    -0.0520 ca         1 3NU       0.607800
     10 N5           1.3860     0.2680    -0.0790 nu         1 3NU      -0.867900
     11 C6          -1.5590    -2.4360    -0.4520 ca         1 3NU      -0.444600
     12 N6           5.5860     0.5140     0.4080 n3         1 3NU      -0.716600
     13 C7          -0.2370    -2.7610    -0.6700 ca         1 3NU       0.479200
     14 C8          -3.0320     1.9720     0.1880 c3         1 3NU      -0.094000
     15 C9          -3.1130     2.4210    -1.2740 c3         1 3NU      -0.082100
     16 C10         -3.6220     3.0260     1.1210 c3         1 3NU      -0.082100
     17 C11          2.7990     0.0130    -0.2330 c6         1 3NU       0.247500
     18 C12          3.5160     1.2820    -0.6750 c6         1 3NU      -0.093400
     19 C13          5.0070     1.0200    -0.8220 c6         1 3NU       0.167800
     20 C14          4.9440    -0.7180     0.8300 c6         1 3NU       0.167800
     21 C15          3.4510    -0.5210     1.0410 c6         1 3NU      -0.093400
     22 H2          -4.3630    -2.5760     0.3890 h4         1 3NU       0.173000
     23 HN5          1.0980     1.1700     0.2670 hn         1 3NU       0.445800
     24 H6          -2.3400    -3.1690    -0.5810 ha         1 3NU       0.144000
     25 H7           0.0330    -3.7680    -0.9700 h4         1 3NU       0.015100
     26 H8          -1.9810     1.8260     0.4310 hc         1 3NU       0.081700
     27 H9          -2.6370     3.3940    -1.4090 hc         1 3NU       0.035533
     28 H9A         -2.6110     1.7120    -1.9340 hc         1 3NU       0.035533
     29 H9B         -4.1520     2.5060    -1.6000 hc         1 3NU       0.035533
     30 H10         -3.5300     2.7300     2.1670 hc         1 3NU       0.035533
     31 H10A        -3.0960     3.9740     0.9970 hc         1 3NU       0.035533
     32 H10B        -4.6780     3.1980     0.9120 hc         1 3NU       0.035533
     33 H11          2.9210    -0.7360    -1.0200 h1         1 3NU       0.075700
     34 H12          3.1150     1.6270    -1.6310 hc         1 3NU       0.054700
     35 H12A         3.3530     2.0790     0.0580 hc         1 3NU       0.054700
     36 H13          5.5160     1.9490    -1.0900 h1         1 3NU       0.033200
     37 H13A         5.1660     0.3180    -1.6600 h1         1 3NU       0.033200
     38 H14          5.1040    -1.5280     0.0940 h1         1 3NU       0.033200
     39 H14A         5.4060    -1.0480     1.7630 h1         1 3NU       0.033200
     40 H15          3.2860     0.1890     1.8570 hc         1 3NU       0.054700
     41 H15A         2.9940    -1.4700     1.3280 hc         1 3NU       0.054700
     42 H16          7.4860     1.2840    -0.0000 h1         1 3NU       0.030033
     43 H16A         7.4450     0.0210     1.2280 h1         1 3NU       0.030033
     44 H16B         7.2920    -0.4080    -0.4830 h1         1 3NU       0.030033
     45 HN1         -6.2690    -0.9960     0.7750 hn         1 3NU       0.322700
     46 C16          7.0140     0.3400     0.2770 c3         1 3NU       0.152100
@<TRIPOS>BOND
     1     1     3 2   
     2     1     5 1   
     3     1     9 1   
     4     2     3 1   
     5     2     4 1   
     6     2    45 1   
     7     3    22 1   
     8     4     5 2   
     9     5    14 1   
    10     6     7 ar  
    11     6    13 ar  
    12     7     8 ar  
    13     7    10 1   
    14     8     9 ar  
    15     9    11 ar  
    16    10    17 1   
    17    10    23 1   
    18    11    13 ar  
    19    11    24 1   
    20    12    19 1   
    21    12    20 1   
    22    12    46 1   
    23    13    25 1   
    24    14    15 1   
    25    14    16 1   
    26    14    26 1   
    27    15    27 1   
    28    15    28 1   
    29    15    29 1   
    30    16    30 1   
    31    16    31 1   
    32    16    32 1   
    33    17    18 1   
    34    17    21 1   
    35    17    33 1   
    36    18    19 1   
    37    18    34 1   
    38    18    35 1   
    39    19    36 1   
    40    19    37 1   
    41    20    21 1   
    42    20    38 1   
    43    20    39 1   
    44    21    40 1   
    45    21    41 1   
    46    42    46 1   
    47    43    46 1   
    48    44    46 1   
@<TRIPOS>SUBSTRUCTURE
     1 3NU         1 TEMP              0 ****  ****    0 ROOT
