@<TRIPOS>MOLECULE
3NV
   51    54     1     0     0
SMALL
bcc


@<TRIPOS>ATOM
      1 C1           6.2710    -1.0850     0.3570 c6         1 3NV       0.152800
      2 N1           5.6760     0.1250    -0.1800 nh         1 3NV      -0.630000
      3 CL1         -5.9570    -2.5020    -0.5090 cl         1 3NV      -0.033400
      4 C2           7.7550    -1.1390     0.0150 c6         1 3NV       0.143800
      5 N2           8.4960     0.0370     0.4350 n7         1 3NV      -0.783200
      6 C3           7.8570     1.2380    -0.0720 c6         1 3NV       0.143800
      7 N3           2.1240    -0.6970     0.4120 nb         1 3NV      -0.660000
      8 C4           6.3770     1.3260     0.2680 c6         1 3NV       0.152800
      9 N4           0.1390     0.3590    -0.2770 nu         1 3NV      -0.849600
     10 C5           3.4560    -0.7320     0.4400 ca         1 3NV       0.385200
     11 N5          -6.5790     0.0340    -0.1040 na         1 3NV       0.002400
     12 C6           4.2820     0.1980    -0.1860 ca         1 3NV      -0.008700
     13 N6          -6.1150     1.2470     0.1840 nc         1 3NV      -0.513800
     14 C7           3.6220     1.2280    -0.8740 ca         1 3NV      -0.095000
     15 N7          -0.5260    -1.7820     0.4020 nb         1 3NV      -0.707000
     16 C8           2.2500     1.2720    -0.9080 ca         1 3NV      -0.273300
     17 N8          -2.0680    -0.0380    -0.0400 nb         1 3NV      -0.785000
     18 C9           1.5240     0.2710    -0.2450 ca         1 3NV       0.658200
     19 C10         -4.4220    -0.2440     0.1670 cd         1 3NV      -0.322800
     20 C11         -5.6130    -0.8860    -0.1190 cc         1 3NV       0.020100
     21 C12         -4.8140     1.1140     0.3430 cd         1 3NV       0.376600
     22 C13         -3.9590     2.3060     0.6580 c3         1 3NV      -0.087000
     23 C14         -3.4670     2.9580    -0.6360 c3         1 3NV      -0.083600
     24 C15         -4.6950     3.3170     1.5330 c3         1 3NV      -0.083600
     25 C16         -3.0890    -0.8250     0.2710 ca         1 3NV       0.591800
     26 C17         -2.8690    -2.1390     0.6920 ca         1 3NV      -0.412600
     27 C18         -1.5540    -2.5580     0.7210 ca         1 3NV       0.466200
     28 C19         -0.8350    -0.5390     0.0540 ca         1 3NV       0.915900
     29 H1           6.1490    -1.1520     1.4500 h1         1 3NV       0.040450
     30 H1A          5.7740    -1.9560    -0.0770 h1         1 3NV       0.040450
     31 H2           8.1940    -2.0260     0.4760 h1         1 3NV       0.061700
     32 H2A          7.8690    -1.2490    -1.0680 h1         1 3NV       0.061700
     33 HN2          8.5060     0.0730     1.4490 hn         1 3NV       0.346800
     34 H3           8.3680     2.1160     0.3290 h1         1 3NV       0.061700
     35 H3A          7.9790     1.2630    -1.1590 h1         1 3NV       0.061700
     36 H4           5.9510     2.2080    -0.2110 h1         1 3NV       0.040450
     37 H4A          6.2580     1.4590     1.3550 h1         1 3NV       0.040450
     38 HN4         -0.2330     1.2300    -0.6240 hn         1 3NV       0.455800
     39 H5           3.8770    -1.5570     1.0030 h4         1 3NV       0.021100
     40 H7           4.1850     1.9860    -1.4030 ha         1 3NV       0.140000
     41 H8           1.7430     2.0610    -1.4480 ha         1 3NV       0.140000
     42 H13         -3.0830     1.9500     1.2030 hc         1 3NV       0.068700
     43 H14         -4.3030     3.3580    -1.2120 hc         1 3NV       0.037700
     44 H14A        -2.7880     3.7830    -0.4130 hc         1 3NV       0.037700
     45 H14B        -2.9320     2.2410    -1.2570 hc         1 3NV       0.037700
     46 H15         -5.5810     3.7090     1.0320 hc         1 3NV       0.037700
     47 H15A        -5.0120     2.8750     2.4780 hc         1 3NV       0.037700
     48 H15B        -4.0410     4.1600     1.7600 hc         1 3NV       0.037700
     49 H17         -3.6650    -2.8000     0.9970 ha         1 3NV       0.156000
     50 H18         -1.3130    -3.5720     1.0200 h4         1 3NV       0.023100
     51 HN5         -7.5620    -0.1100    -0.2780 hn         1 3NV       0.334700
@<TRIPOS>BOND
     1     1     2 1   
     2     1     4 1   
     3     1    29 1   
     4     1    30 1   
     5     2     8 1   
     6     2    12 1   
     7     3    20 1   
     8     4     5 1   
     9     4    31 1   
    10     4    32 1   
    11     5     6 1   
    12     5    33 1   
    13     6     8 1   
    14     6    34 1   
    15     6    35 1   
    16     7    10 ar  
    17     7    18 ar  
    18     8    36 1   
    19     8    37 1   
    20     9    18 1   
    21     9    28 1   
    22     9    38 1   
    23    10    12 ar  
    24    10    39 1   
    25    11    13 1   
    26    11    20 1   
    27    11    51 1   
    28    12    14 ar  
    29    13    21 2   
    30    14    16 ar  
    31    14    40 1   
    32    15    27 ar  
    33    15    28 ar  
    34    16    18 ar  
    35    16    41 1   
    36    17    25 ar  
    37    17    28 ar  
    38    19    20 2   
    39    19    21 1   
    40    19    25 1   
    41    21    22 1   
    42    22    23 1   
    43    22    24 1   
    44    22    42 1   
    45    23    43 1   
    46    23    44 1   
    47    23    45 1   
    48    24    46 1   
    49    24    47 1   
    50    24    48 1   
    51    25    26 ar  
    52    26    27 ar  
    53    26    49 1   
    54    27    50 1   
@<TRIPOS>SUBSTRUCTURE
     1 3NV         1 TEMP              0 ****  ****    0 ROOT
