@<TRIPOS>MOLECULE
3NV
   51    54     1     0     0
SMALL
No Charge or Current Charge


@<TRIPOS>ATOM
      1 C1           6.4330    -1.1840     0.0950 c6         1 3NV       0.152800
      2 N1           5.7300     0.1340    -0.0360 nh         1 3NV      -0.768400
      3 Cl1         -5.8280    -2.6820    -0.4780 cl         1 3NV      -0.125000
      4 C2           7.9110    -1.1340    -0.4140 c6         1 3NV       0.143800
      5 N2           8.6930    -0.0200     0.1970 n7         1 3NV      -0.838400
      6 C3           8.0070     1.2850    -0.0280 c6         1 3NV       0.143800
      7 N3           2.1090    -0.8020     0.4240 nb         1 3NV      -0.660000
      8 C4           6.5320     1.2890     0.4900 c6         1 3NV       0.152800
      9 N4           0.1380     0.3110    -0.1130 nu         1 3NV      -0.904800
     10 C5           3.4660    -0.8370     0.4390 ca         1 3NV       0.319900
     11 N5          -6.6350    -0.0390    -0.3900 na         1 3NV       0.002800
     12 C6           4.3030     0.2020    -0.0620 ca         1 3NV       0.195000
     13 N6          -6.2150     1.2600    -0.1800 nc         1 3NV      -0.513800
     14 C7           3.6530     1.3240    -0.6130 ca         1 3NV      -0.077000
     15 N7          -0.6070    -1.7430     0.8200 nb         1 3NV      -0.181000
     16 C8           2.2470     1.3590    -0.6290 ca         1 3NV      -0.190000
     17 N8          -2.1170    -0.0340     0.0760 nb         1 3NV      -0.259000
     18 C9           1.5210     0.2800    -0.1020 ca         1 3NV       0.592900
     19 C10         -4.5240    -0.2520     0.1550 cd         1 3NV      -0.257500
     20 C11         -5.6370    -0.9780    -0.1890 cc         1 3NV       0.061000
     21 C12         -4.9410     1.1150     0.1530 cd         1 3NV       0.311300
     22 C13         -4.1170     2.3480     0.5030 c3         1 3NV      -0.087000
     23 C14         -3.5580     3.0310    -0.7670 c3         1 3NV      -0.083600
     24 C15         -4.8860     3.3590     1.3920 c3         1 3NV      -0.083600
     25 C16         -3.1760    -0.7860     0.4400 ca         1 3NV       0.263500
     26 C17         -2.9750    -2.0640     0.9940 ca         1 3NV      -0.264000
     27 C18         -1.6560    -2.5060     1.1750 ca         1 3NV       0.137900
     28 C19         -0.8900    -0.5390     0.2850 ca         1 3NV       0.389900
     29 H1           6.4310    -1.5010     1.1480 h1         1 3NV       0.040450
     30 H1A          5.9010    -1.9560    -0.4800 h1         1 3NV       0.040450
     31 H2           8.4010    -2.0950    -0.1990 h1         1 3NV       0.061700
     32 H2A          7.9020    -1.0120    -1.5080 h1         1 3NV       0.061700
     33 HN2          8.7340    -0.1840     1.2110 hn         1 3NV       0.402000
     34 H3           8.5680     2.0910     0.4690 h1         1 3NV       0.061700
     35 H3A          8.0020     1.5110    -1.1050 h1         1 3NV       0.061700
     36 H4           6.0750     2.2480     0.2080 h1         1 3NV       0.040450
     37 H4A          6.5440     1.2530     1.5890 h1         1 3NV       0.040450
     38 HN4         -0.2170     1.1730    -0.5140 hn         1 3NV       0.511000
     39 H5           3.8990    -1.7330     0.8810 h4         1 3NV       0.021100
     40 H7           4.2240     2.1470    -1.0340 ha         1 3NV       0.122000
     41 H8           1.7300     2.2150    -1.0510 ha         1 3NV       0.122000
     42 H13         -3.2610     2.0330     1.1080 hc         1 3NV       0.068700
     43 H14         -4.3720     3.4150    -1.3920 hc         1 3NV       0.037700
     44 H14A        -2.9030     3.8690    -0.5010 hc         1 3NV       0.037700
     45 H14B        -2.9750     2.3210    -1.3650 hc         1 3NV       0.037700
     46 H15         -5.7340     3.7980     0.8530 hc         1 3NV       0.037700
     47 H15A        -5.2680     2.8650     2.2940 hc         1 3NV       0.037700
     48 H15B        -4.2250     4.1750     1.7080 hc         1 3NV       0.037700
     49 H17         -3.8040    -2.6880     1.3100 ha         1 3NV       0.138000
     50 H18         -1.4360    -3.4790     1.6110 h4         1 3NV       0.023100
     51 HN5         -7.5890    -0.2490    -0.6740 hn         1 3NV       0.385000
@<TRIPOS>BOND
     1     1     2 1   
     2     1     4 1   
     3     1    29 1   
     4     1    30 1   
     5     2     8 1   
     6     2    12 1   
     7     3    20 1   
     8     4     5 1   
     9     4    31 1   
    10     4    32 1   
    11     5     6 1   
    12     5    33 1   
    13     6     8 1   
    14     6    34 1   
    15     6    35 1   
    16     7    10 ar  
    17     7    18 ar  
    18     8    36 1   
    19     8    37 1   
    20     9    18 1   
    21     9    28 1   
    22     9    38 1   
    23    10    12 ar  
    24    10    39 1   
    25    11    13 1   
    26    11    20 1   
    27    11    51 1   
    28    12    14 ar  
    29    13    21 2   
    30    14    16 ar  
    31    14    40 1   
    32    15    27 ar  
    33    15    28 ar  
    34    16    18 ar  
    35    16    41 1   
    36    17    25 ar  
    37    17    28 ar  
    38    19    20 2   
    39    19    21 1   
    40    19    25 1   
    41    21    22 1   
    42    22    23 1   
    43    22    24 1   
    44    22    42 1   
    45    23    43 1   
    46    23    44 1   
    47    23    45 1   
    48    24    46 1   
    49    24    47 1   
    50    24    48 1   
    51    25    26 ar  
    52    26    27 ar  
    53    26    49 1   
    54    27    50 1   
@<TRIPOS>SUBSTRUCTURE
     1 3NV         1 TEMP              0 ****  ****    0 ROOT
