@<TRIPOS>MOLECULE
3NW
   68    70     1     0     0
SMALL
No Charge or Current Charge


@<TRIPOS>ATOM
      1 C1           0.9940     1.5680     0.1040 ca         1 3NW      -0.285000
      2 C2           1.5490     0.2740     0.0660 ca         1 3NW       0.272500
      3 N3           0.7480    -0.8100     0.0350 nb         1 3NW      -0.258000
      4 C4          -0.5740    -0.5800     0.0610 ca         1 3NW       0.393900
      5 N5          -1.1770     0.6090     0.1300 nb         1 3NW      -0.256000
      6 C6          -0.4150     1.7110     0.1300 cp         1 3NW       0.218500
      7 C7           3.0000     0.0820     0.0380 cc         1 3NW      -0.343500
      8 C8           3.5570    -1.1790    -0.0190 cd         1 3NW       0.388900
      9 N9           4.9470    -1.1860    -0.0360 nd         1 3NW      -0.752000
     10 C10          5.3950     0.0510     0.0090 cc         1 3NW       0.738300
     11 S11          4.2120     1.3310     0.0750 ss         1 3NW      -0.122400
     12 N12          6.7370     0.2890     0.0030 nu         1 3NW      -0.917100
     13 C13          7.8180    -0.7010    -0.0190 c3         1 3NW       0.236500
     14 C14          8.9870    -0.1510    -0.8570 c3         1 3NW      -0.110600
     15 C15          8.2410    -1.0290     1.4250 c3         1 3NW      -0.110600
     16 N16         -1.4410    -1.6480    -0.0540 nu         1 3NW      -0.915100
     17 C17         -2.2730     5.6470     0.3670 ca         1 3NW      -0.102000
     18 C18         -1.1030     3.0540     0.1750 cp         1 3NW      -0.126500
     19 C19         -2.3850     3.3280    -0.4200 ca         1 3NW      -0.079300
     20 C20         -2.9440     4.6200    -0.3090 ca         1 3NW      -0.118000
     21 C21         -1.0270     5.3970     0.9500 ca         1 3NW      -0.110000
     22 C22         -0.4540     4.1210     0.8550 ca         1 3NW      -0.097000
     23 C23         -3.2180     2.3010    -1.2000 c3         1 3NW       0.171300
     24 C24         -3.3880    -6.1400    -0.8600 c3         1 3NW       0.150100
     25 N25         -2.1280    -5.4110    -0.5940 n3         1 3NW      -0.711600
     26 C26         -2.3650    -3.9660    -0.3140 c3         1 3NW       0.148800
     27 C27         -1.0930    -3.0700    -0.2420 c3         1 3NW       0.226800
     28 C28         -1.3050    -6.0900     0.4360 c3         1 3NW       0.150100
     29 N29         -4.1800     1.6220    -0.3260 ns         1 3NW      -0.503900
     30 C30         -4.4150     0.2750    -0.3120 c          1 3NW       0.668100
     31 N31         -5.3210    -0.0930     0.6410 ns         1 3NW      -0.518900
     32 O32         -3.8700    -0.5250    -1.0540 o          1 3NW      -0.674100
     33 C33         -5.7280    -1.4750     0.8900 c3         1 3NW       0.110000
     34 C34         -6.5970    -1.5890     2.1520 c3         1 3NW      -0.108100
     35 H1           1.6360     2.4420     0.0970 ha         1 3NW       0.133000
     36 H8           3.0230    -2.1220    -0.0500 h4         1 3NW       0.056100
     37 HN12         6.9800     1.2750     0.0510 hn         1 3NW       0.495000
     38 H13          7.4760    -1.6320    -0.4960 h1         1 3NW       0.084700
     39 H14          9.3860     0.7730    -0.4210 hc         1 3NW       0.043867
     40 H14A         9.8000    -0.8850    -0.9070 hc         1 3NW       0.043867
     41 H14B         8.6600     0.0610    -1.8820 hc         1 3NW       0.043867
     42 H15          8.6030    -0.1320     1.9420 hc         1 3NW       0.043867
     43 H15A         7.3960    -1.4380     1.9910 hc         1 3NW       0.043867
     44 H15B         9.0440    -1.7750     1.4280 hc         1 3NW       0.043867
     45 HN16        -2.3850    -1.3570    -0.3530 hn         1 3NW       0.523000
     46 H17         -2.7210     6.6360     0.4410 ha         1 3NW       0.116000
     47 H20         -3.9130     4.8320    -0.7570 ha         1 3NW       0.114000
     48 H21         -0.5050     6.1900     1.4820 ha         1 3NW       0.116000
     49 H22          0.5060     3.9540     1.3380 ha         1 3NW       0.119000
     50 H23         -3.7820     2.8170    -1.9880 h1         1 3NW       0.066200
     51 H23A        -2.5710     1.5780    -1.7100 h1         1 3NW       0.066200
     52 H24         -3.9420    -5.6690    -1.6840 h1         1 3NW       0.030700
     53 H24A        -3.1840    -7.1810    -1.1440 h1         1 3NW       0.030700
     54 H24B        -4.0330    -6.1450     0.0290 h1         1 3NW       0.030700
     55 H26         -3.0080    -3.5520    -1.1020 h1         1 3NW       0.038200
     56 H26A        -2.9140    -3.8590     0.6310 h1         1 3NW       0.038200
     57 H27         -0.5200    -3.1950    -1.1710 h1         1 3NW       0.055700
     58 H27A        -0.4610    -3.4050     0.5910 h1         1 3NW       0.055700
     59 H28         -1.1550    -7.1470     0.1760 h1         1 3NW       0.030700
     60 H28A        -0.3130    -5.6280     0.5190 h1         1 3NW       0.030700
     61 H28B        -1.7920    -6.0450     1.4190 h1         1 3NW       0.030700
     62 HN29        -4.6800     2.1820     0.3500 hn         1 3NW       0.303500
     63 HN31        -5.7200     0.6400     1.2120 hn         1 3NW       0.300500
     64 H33         -6.2890    -1.8420     0.0210 h1         1 3NW       0.047700
     65 H33A        -4.8290    -2.0950     1.0090 h1         1 3NW       0.047700
     66 H34         -6.8870    -2.6330     2.3190 hc         1 3NW       0.040700
     67 H34A        -6.0470    -1.2400     3.0340 hc         1 3NW       0.040700
     68 H34B        -7.5100    -0.9910     2.0490 hc         1 3NW       0.040700
@<TRIPOS>BOND
     1     1     2 ar  
     2     1     6 ar  
     3     1    35 1   
     4     2     3 ar  
     5     2     7 1   
     6     3     4 ar  
     7     4     5 ar  
     8     4    16 1   
     9     5     6 ar  
    10     6    18 1   
    11     7     8 2   
    12     7    11 1   
    13     8     9 1   
    14     8    36 1   
    15     9    10 2   
    16    10    11 1   
    17    10    12 1   
    18    12    13 1   
    19    12    37 1   
    20    13    14 1   
    21    13    15 1   
    22    13    38 1   
    23    14    39 1   
    24    14    40 1   
    25    14    41 1   
    26    15    42 1   
    27    15    43 1   
    28    15    44 1   
    29    16    27 1   
    30    16    45 1   
    31    17    20 ar  
    32    17    21 ar  
    33    17    46 1   
    34    18    19 ar  
    35    18    22 ar  
    36    19    20 ar  
    37    19    23 1   
    38    20    47 1   
    39    21    22 ar  
    40    21    48 1   
    41    22    49 1   
    42    23    29 1   
    43    23    50 1   
    44    23    51 1   
    45    24    25 1   
    46    24    52 1   
    47    24    53 1   
    48    24    54 1   
    49    25    26 1   
    50    25    28 1   
    51    26    27 1   
    52    26    55 1   
    53    26    56 1   
    54    27    57 1   
    55    27    58 1   
    56    28    59 1   
    57    28    60 1   
    58    28    61 1   
    59    29    30 1   
    60    29    62 1   
    61    30    31 1   
    62    30    32 2   
    63    31    33 1   
    64    31    63 1   
    65    33    34 1   
    66    33    64 1   
    67    33    65 1   
    68    34    66 1   
    69    34    67 1   
    70    34    68 1   
@<TRIPOS>SUBSTRUCTURE
     1 3NW         1 TEMP              0 ****  ****    0 ROOT
