@<TRIPOS>MOLECULE
3NW
   68    70     1     0     0
SMALL
bcc


@<TRIPOS>ATOM
      1 C1           0.8630     1.5440    -0.0120 ca         1 3NW      -0.433600
      2 C2           1.3730     0.2490    -0.0300 ca         1 3NW       0.600800
      3 N3           0.5710    -0.8170    -0.0460 nb         1 3NW      -0.784000
      4 C4          -0.7370    -0.5870    -0.0290 ca         1 3NW       0.919900
      5 N5          -1.3180     0.6190     0.0580 nb         1 3NW      -0.782000
      6 C6          -0.5250     1.6750     0.0470 cp         1 3NW       0.546800
      7 C7           2.7940    -0.0260    -0.0480 cc         1 3NW      -0.263900
      8 C8           3.4090    -1.2410    -0.0990 cd         1 3NW       0.454200
      9 N9           4.7630    -1.2540    -0.0950 nd         1 3NW      -0.752000
     10 C10          5.2390    -0.0360    -0.0480 cc         1 3NW       0.738300
     11 S11          4.0200     1.2150     0.0040 ss         1 3NW      -0.267300
     12 N12          6.5370     0.2730    -0.0660 nu         1 3NW      -0.861900
     13 C13          7.5870    -0.7360     0.0210 c3         1 3NW       0.236500
     14 C14          8.8630    -0.1640    -0.5760 c3         1 3NW      -0.110600
     15 C15          7.7940    -1.2020     1.4580 c3         1 3NW      -0.110600
     16 N16         -1.5790    -1.6400    -0.0880 nu         1 3NW      -0.859900
     17 C17         -2.1680     5.6250     0.2340 ca         1 3NW      -0.120000
     18 C18         -1.1540     3.0170     0.1000 cp         1 3NW      -0.126500
     19 C19         -2.3820     3.3190    -0.5150 ca         1 3NW      -0.079300
     20 C20         -2.8540     4.6280    -0.4440 ca         1 3NW      -0.136000
     21 C21         -0.9700     5.3190     0.8590 ca         1 3NW      -0.128000
     22 C22         -0.4720     4.0290     0.7800 ca         1 3NW      -0.115000
     23 C23         -3.2640     2.3260    -1.2390 c3         1 3NW       0.171300
     24 C24         -3.1800    -6.0830    -0.8040 c3         1 3NW       0.150100
     25 N25         -1.9830    -5.2810    -0.6680 n3         1 3NW      -0.711600
     26 C26         -2.3000    -3.9430    -0.2160 c3         1 3NW       0.148800
     27 C27         -1.1300    -2.9810    -0.3780 c3         1 3NW       0.226800
     28 C28         -1.0220    -5.9470     0.1860 c3         1 3NW       0.150100
     29 N29         -4.2040     1.7270    -0.3160 ns         1 3NW      -0.570900
     30 C30         -4.4340     0.3950    -0.2420 c          1 3NW       0.802100
     31 N31         -5.1090    -0.0090     0.8660 ns         1 3NW      -0.585900
     32 O32         -4.0990    -0.3940    -1.1290 o          1 3NW      -0.674100
     33 C33         -5.3350    -1.4090     1.1560 c3         1 3NW       0.110000
     34 C34         -6.3860    -1.5610     2.2390 c3         1 3NW      -0.108100
     35 H1           1.5100     2.4090    -0.0590 ha         1 3NW       0.151000
     36 H8           2.8670    -2.1750    -0.1380 h4         1 3NW       0.056100
     37 HN12         6.8040     1.2310     0.0990 hn         1 3NW       0.439800
     38 H13          7.2620    -1.5840    -0.5830 h1         1 3NW       0.084700
     39 H14          9.2010     0.7090    -0.0130 hc         1 3NW       0.043867
     40 H14A         9.6580    -0.9070    -0.5430 hc         1 3NW       0.043867
     41 H14B         8.7190     0.1330    -1.6150 hc         1 3NW       0.043867
     42 H15          8.1420    -0.3800     2.0860 hc         1 3NW       0.043867
     43 H15A         6.8700    -1.5930     1.8840 hc         1 3NW       0.043867
     44 H15B         8.5410    -1.9960     1.4960 hc         1 3NW       0.043867
     45 HN16        -2.5210    -1.3930    -0.3750 hn         1 3NW       0.467800
     46 H17         -2.5690     6.6290     0.2720 ha         1 3NW       0.134000
     47 H20         -3.7890     4.8720    -0.9350 ha         1 3NW       0.132000
     48 H21         -0.4240     6.0760     1.4060 ha         1 3NW       0.134000
     49 H22          0.4610     3.8000     1.2780 ha         1 3NW       0.137000
     50 H23         -3.7980     2.8600    -2.0300 h1         1 3NW       0.066200
     51 H23A        -2.6910     1.5370    -1.7160 h1         1 3NW       0.066200
     52 H24         -3.8810    -5.6040    -1.4890 h1         1 3NW       0.030700
     53 H24A        -2.9280    -7.0620    -1.2140 h1         1 3NW       0.030700
     54 H24B        -3.7030    -6.2480     0.1520 h1         1 3NW       0.030700
     55 H26         -3.1340    -3.5760    -0.8230 h1         1 3NW       0.038200
     56 H26A        -2.6460    -3.9260     0.8330 h1         1 3NW       0.038200
     57 H27         -0.7340    -3.0690    -1.3970 h1         1 3NW       0.055700
     58 H27A        -0.3160    -3.2350     0.3010 h1         1 3NW       0.055700
     59 H28         -0.7880    -6.9320    -0.2210 h1         1 3NW       0.030700
     60 H28A        -0.0870    -5.3890     0.2400 h1         1 3NW       0.030700
     61 H28B        -1.3890    -6.0880     1.2160 h1         1 3NW       0.030700
     62 HN29        -4.5340     2.3130     0.4340 hn         1 3NW       0.303500
     63 HN31        -5.1440     0.6190     1.6530 hn         1 3NW       0.300500
     64 H33         -5.6650    -1.9100     0.2460 h1         1 3NW       0.047700
     65 H33A        -4.4070    -1.9020     1.4700 h1         1 3NW       0.047700
     66 H34         -6.5510    -2.6150     2.4580 hc         1 3NW       0.040700
     67 H34A        -6.0760    -1.0770     3.1670 hc         1 3NW       0.040700
     68 H34B        -7.3370    -1.1250     1.9300 hc         1 3NW       0.040700
@<TRIPOS>BOND
     1     1     2 ar  
     2     1     6 ar  
     3     1    35 1   
     4     2     3 ar  
     5     2     7 1   
     6     3     4 ar  
     7     4     5 ar  
     8     4    16 1   
     9     5     6 ar  
    10     6    18 1   
    11     7     8 2   
    12     7    11 1   
    13     8     9 1   
    14     8    36 1   
    15     9    10 2   
    16    10    11 1   
    17    10    12 1   
    18    12    13 1   
    19    12    37 1   
    20    13    14 1   
    21    13    15 1   
    22    13    38 1   
    23    14    39 1   
    24    14    40 1   
    25    14    41 1   
    26    15    42 1   
    27    15    43 1   
    28    15    44 1   
    29    16    27 1   
    30    16    45 1   
    31    17    20 ar  
    32    17    21 ar  
    33    17    46 1   
    34    18    19 ar  
    35    18    22 ar  
    36    19    20 ar  
    37    19    23 1   
    38    20    47 1   
    39    21    22 ar  
    40    21    48 1   
    41    22    49 1   
    42    23    29 1   
    43    23    50 1   
    44    23    51 1   
    45    24    25 1   
    46    24    52 1   
    47    24    53 1   
    48    24    54 1   
    49    25    26 1   
    50    25    28 1   
    51    26    27 1   
    52    26    55 1   
    53    26    56 1   
    54    27    57 1   
    55    27    58 1   
    56    28    59 1   
    57    28    60 1   
    58    28    61 1   
    59    29    30 1   
    60    29    62 1   
    61    30    31 1   
    62    30    32 2   
    63    31    33 1   
    64    31    63 1   
    65    33    34 1   
    66    33    64 1   
    67    33    65 1   
    68    34    66 1   
    69    34    67 1   
    70    34    68 1   
@<TRIPOS>SUBSTRUCTURE
     1 3NW         1 TEMP              0 ****  ****    0 ROOT
