@<TRIPOS>MOLECULE
3NX
   61    65     1     0     0
SMALL
bcc


@<TRIPOS>ATOM
      1 C1          -3.1450    -0.0090    -0.1100 c2         1 3NX      -0.070400
      2 C2          -2.7770     1.2500     0.1460 ce         1 3NX      -0.176400
      3 C3          -3.7600     2.3530     0.3940 c          1 3NX       0.676300
      4 O4          -3.8840     2.8550     1.5040 o          1 3NX      -0.601100
      5 N5          -4.4160     2.7930    -0.6890 nt         1 3NX      -0.672000
      6 C8          -1.3520     1.7080     0.2690 c6         1 3NX      -0.029200
      7 C9          -0.3650     0.7150    -0.3210 c6         1 3NX      -0.041700
      8 C11         -0.7220    -0.6970     0.1630 c6         1 3NX      -0.049700
      9 C12         -2.1310    -1.1320    -0.3150 c6         1 3NX       0.002200
     10 C13         -2.1290    -1.4960    -1.8090 c3         1 3NX      -0.082100
     11 C14         -2.5640    -2.3530     0.5260 c6         1 3NX      -0.065400
     12 C15         -4.0200    -2.7590     0.3490 c6         1 3NX      -0.112400
     13 C16         -4.9320    -1.5900     0.6710 c6         1 3NX       0.150100
     14 O18         -6.2980    -1.8940     0.4780 oh         1 3NX      -0.598800
     15 C20         -4.5960    -0.4090    -0.2280 c6         1 3NX      -0.045200
     16 C21          0.3660    -1.7400    -0.1450 c6         1 3NX      -0.071400
     17 C22          1.7890    -1.3060     0.2240 c6         1 3NX      -0.060400
     18 C23          2.1050     0.0510    -0.4000 c5         1 3NX      -0.004800
     19 C24          2.1140    -0.0290    -1.9360 c3         1 3NX      -0.080100
     20 C25          1.0470     1.0370     0.1250 c5         1 3NX      -0.067700
     21 C27          1.6650     2.4110    -0.1240 c5         1 3NX      -0.044200
     22 C28          3.1140     2.0990     0.1200 c2         1 3NX      -0.158200
     23 C29          3.3700     0.7860     0.0390 ce         1 3NX      -0.068400
     24 C30          4.6860     0.1820     0.2670 ca         1 3NX      -0.144100
     25 C31          5.1030    -0.9910    -0.3680 ca         1 3NX       0.408200
     26 N32          6.2910    -1.5550    -0.1920 nb         1 3NX      -0.668000
     27 C33          7.1450    -0.9750     0.6420 ca         1 3NX       0.399200
     28 C34          6.8420     0.1880     1.3350 ca         1 3NX      -0.246300
     29 C35          5.6000     0.7650     1.1490 ca         1 3NX      -0.089000
     30 H1          -5.0760     3.5510    -0.6230 hn         1 3NX       0.314000
     31 H2          -4.2860     2.3640    -1.5880 hn         1 3NX       0.314000
     32 H3          -1.2390     2.6810    -0.2190 hc         1 3NX       0.058700
     33 H4          -1.1200     1.8810     1.3280 hc         1 3NX       0.058700
     34 H5          -0.4390     0.7720    -1.4130 hc         1 3NX       0.054700
     35 H6          -0.7790    -0.6240     1.2600 hc         1 3NX       0.051700
     36 H7          -1.7340    -0.6790    -2.4150 hc         1 3NX       0.036367
     37 H8          -1.5240    -2.3810    -2.0060 hc         1 3NX       0.036367
     38 H9          -3.1300    -1.7130    -2.1830 hc         1 3NX       0.036367
     39 H10         -1.9200    -3.2030     0.2880 hc         1 3NX       0.045700
     40 H11         -2.3900    -2.1250     1.5830 hc         1 3NX       0.045700
     41 H12         -4.2120    -3.0970    -0.6740 hc         1 3NX       0.047200
     42 H13         -4.2430    -3.6040     1.0080 hc         1 3NX       0.047200
     43 H14         -4.7500    -1.2880     1.7140 h1         1 3NX       0.039700
     44 H15         -6.5230    -2.6320     1.0540 ho         1 3NX       0.405000
     45 H16         -5.2600     0.4220     0.0110 hc         1 3NX       0.061200
     46 H17         -4.8200    -0.6920    -1.2640 hc         1 3NX       0.061200
     47 H18          0.1370    -2.6650     0.3880 hc         1 3NX       0.040700
     48 H19          0.3510    -2.0040    -1.2040 hc         1 3NX       0.040700
     49 H20          1.8900    -1.2320     1.3120 hc         1 3NX       0.046700
     50 H21          2.4850    -2.0840    -0.1010 hc         1 3NX       0.046700
     51 H22          2.9040    -0.6930    -2.2900 hc         1 3NX       0.036033
     52 H23          1.1780    -0.4070    -2.3470 hc         1 3NX       0.036033
     53 H24          2.2940     0.9500    -2.3810 hc         1 3NX       0.036033
     54 H25          1.0570     0.9120     1.2180 hc         1 3NX       0.051700
     55 H26          1.4990     2.7710    -1.1470 hc         1 3NX       0.054700
     56 H27          1.2780     3.1850     0.5430 hc         1 3NX       0.054700
     57 H28          3.8570     2.8650     0.3090 ha         1 3NX       0.138000
     58 H31          4.4480    -1.4980    -1.0670 h4         1 3NX       0.020100
     59 H32          8.1080    -1.4570     0.7690 h4         1 3NX       0.019100
     60 H33          7.5620     0.6240     2.0140 ha         1 3NX       0.141000
     61 H34          5.3300     1.6600     1.6950 ha         1 3NX       0.137000
@<TRIPOS>BOND
     1     1     2 2   
     2     1     9 1   
     3     1    15 1   
     4     2     3 1   
     5     2     6 1   
     6     3     4 2   
     7     3     5 1   
     8     5    30 1   
     9     5    31 1   
    10     6     7 1   
    11     6    32 1   
    12     6    33 1   
    13     7     8 1   
    14     7    20 1   
    15     7    34 1   
    16     8     9 1   
    17     8    16 1   
    18     8    35 1   
    19     9    10 1   
    20     9    11 1   
    21    10    36 1   
    22    10    37 1   
    23    10    38 1   
    24    11    12 1   
    25    11    39 1   
    26    11    40 1   
    27    12    13 1   
    28    12    41 1   
    29    12    42 1   
    30    13    14 1   
    31    13    15 1   
    32    13    43 1   
    33    14    44 1   
    34    15    45 1   
    35    15    46 1   
    36    16    17 1   
    37    16    47 1   
    38    16    48 1   
    39    17    18 1   
    40    17    49 1   
    41    17    50 1   
    42    18    19 1   
    43    18    20 1   
    44    18    23 1   
    45    19    51 1   
    46    19    52 1   
    47    19    53 1   
    48    20    21 1   
    49    20    54 1   
    50    21    22 1   
    51    21    55 1   
    52    21    56 1   
    53    22    23 2   
    54    22    57 1   
    55    23    24 1   
    56    24    25 ar  
    57    24    29 ar  
    58    25    26 ar  
    59    25    58 1   
    60    26    27 ar  
    61    27    28 ar  
    62    27    59 1   
    63    28    29 ar  
    64    28    60 1   
    65    29    61 1   
@<TRIPOS>SUBSTRUCTURE
     1 3NX         1 TEMP              0 ****  ****    0 ROOT
