@<TRIPOS>MOLECULE
3NX
   61    65     1     0     0
SMALL
No Charge or Current Charge


@<TRIPOS>ATOM
      1 C1          -3.1860     0.0710    -0.0420 c2         1 3NX      -0.070400
      2 C2          -2.7880     1.3860     0.0950 ce         1 3NX      -0.176400
      3 C3          -3.6860     2.6140     0.1510 c          1 3NX       0.609300
      4 O4          -3.3280     3.6790     0.6280 o          1 3NX      -0.601100
      5 N5          -4.9120     2.5590    -0.4120 nt         1 3NX      -0.605000
      6 C8          -1.2960     1.7670     0.2020 c6         1 3NX      -0.029200
      7 C9          -0.3120     0.7490    -0.4070 c6         1 3NX      -0.041700
      8 C11         -0.6770    -0.6830     0.0970 c6         1 3NX      -0.049700
      9 C12         -2.1410    -1.0750    -0.3460 c6         1 3NX       0.002200
     10 C13         -2.2410    -1.3190    -1.8920 c3         1 3NX      -0.082100
     11 C14         -2.5600    -2.4090     0.4050 c6         1 3NX      -0.065400
     12 C15         -4.0620    -2.8330     0.2920 c6         1 3NX      -0.112400
     13 C16         -4.9480    -1.6910     0.8120 c6         1 3NX       0.173300
     14 O18         -6.3270    -2.0680     0.7110 oh         1 3NX      -0.661000
     15 C20         -4.6960    -0.3710     0.0360 c6         1 3NX      -0.045200
     16 C21          0.4230    -1.7560    -0.2720 c6         1 3NX      -0.071400
     17 C22          1.8790    -1.3200     0.0820 c6         1 3NX      -0.060400
     18 C23          2.1980     0.0630    -0.5450 c5         1 3NX      -0.004800
     19 C24          2.2620    -0.0370    -2.1060 c3         1 3NX      -0.080100
     20 C25          1.1470     1.0760     0.0120 c5         1 3NX      -0.067700
     21 C27          1.7960     2.4540    -0.3200 c5         1 3NX      -0.044200
     22 C28          3.2410     2.1600     0.0500 c2         1 3NX      -0.208200
     23 C29          3.4090     0.8230    -0.0060 ce         1 3NX      -0.068400
     24 C30          4.7140     0.1800     0.3480 ca         1 3NX      -0.078800
     25 C31          5.2120    -0.9470    -0.3470 ca         1 3NX       0.342900
     26 N32          6.3880    -1.5540    -0.0500 nb         1 3NX      -0.668000
     27 C33          7.1170    -1.0490     0.9700 ca         1 3NX       0.333900
     28 C34          6.7060     0.0630     1.7200 ca         1 3NX      -0.163000
     29 C35          5.4880     0.6900     1.4090 ca         1 3NX      -0.071000
     30 H1          -5.4990     3.3810    -0.4010 hn         1 3NX       0.314000
     31 H2          -5.2150     1.7170    -0.8730 hn         1 3NX       0.314000
     32 H3          -1.1210     2.7370    -0.2840 hc         1 3NX       0.058700
     33 H4          -1.0620     1.9180     1.2650 hc         1 3NX       0.058700
     34 H5          -0.3880     0.8060    -1.4990 hc         1 3NX       0.054700
     35 H6          -0.6850    -0.6280     1.1960 hc         1 3NX       0.051700
     36 H7          -1.9250    -0.4470    -2.4730 hc         1 3NX       0.036367
     37 H8          -1.6400    -2.1740    -2.2190 hc         1 3NX       0.036367
     38 H9          -3.2710    -1.5330    -2.2000 hc         1 3NX       0.036367
     39 H10         -1.9510    -3.2480     0.0440 hc         1 3NX       0.045700
     40 H11         -2.3180    -2.3090     1.4720 hc         1 3NX       0.045700
     41 H12         -4.3160    -3.0770    -0.7480 hc         1 3NX       0.047200
     42 H13         -4.2320    -3.7440     0.8820 hc         1 3NX       0.047200
     43 H14         -4.6910    -1.5150     1.8670 h1         1 3NX       0.039700
     44 H15         -6.4340    -2.8840     1.2470 ho         1 3NX       0.444000
     45 H16         -5.2970     0.3740     0.5670 hc         1 3NX       0.061200
     46 H17         -5.1060    -0.4560    -0.9790 hc         1 3NX       0.061200
     47 H18          0.2210    -2.6970     0.2560 hc         1 3NX       0.040700
     48 H19          0.3830    -2.0030    -1.3390 hc         1 3NX       0.040700
     49 H20          1.9900    -1.2690     1.1740 hc         1 3NX       0.046700
     50 H21          2.5890    -2.0810    -0.2660 hc         1 3NX       0.046700
     51 H22          2.9750    -0.8000    -2.4330 hc         1 3NX       0.036033
     52 H23          1.2970    -0.2980    -2.5520 hc         1 3NX       0.036033
     53 H24          2.5780     0.9080    -2.5620 hc         1 3NX       0.036033
     54 H25          1.1230     0.9930     1.1080 hc         1 3NX       0.051700
     55 H26          1.6910     2.7340    -1.3750 hc         1 3NX       0.054700
     56 H27          1.3770     3.2670     0.2850 hc         1 3NX       0.054700
     57 H28          3.9890     2.8890     0.3650 ha         1 3NX       0.188000
     58 H31          4.6630    -1.3840    -1.1770 h4         1 3NX       0.020100
     59 H32          8.0580    -1.5530     1.1920 h4         1 3NX       0.019100
     60 H33          7.3270     0.4290     2.5330 ha         1 3NX       0.123000
     61 H34          5.1510     1.5460     1.9890 ha         1 3NX       0.119000
@<TRIPOS>BOND
     1     1     2 2   
     2     1     9 1   
     3     1    15 1   
     4     2     3 1   
     5     2     6 1   
     6     3     4 2   
     7     3     5 1   
     8     5    30 1   
     9     5    31 1   
    10     6     7 1   
    11     6    32 1   
    12     6    33 1   
    13     7     8 1   
    14     7    20 1   
    15     7    34 1   
    16     8     9 1   
    17     8    16 1   
    18     8    35 1   
    19     9    10 1   
    20     9    11 1   
    21    10    36 1   
    22    10    37 1   
    23    10    38 1   
    24    11    12 1   
    25    11    39 1   
    26    11    40 1   
    27    12    13 1   
    28    12    41 1   
    29    12    42 1   
    30    13    14 1   
    31    13    15 1   
    32    13    43 1   
    33    14    44 1   
    34    15    45 1   
    35    15    46 1   
    36    16    17 1   
    37    16    47 1   
    38    16    48 1   
    39    17    18 1   
    40    17    49 1   
    41    17    50 1   
    42    18    19 1   
    43    18    20 1   
    44    18    23 1   
    45    19    51 1   
    46    19    52 1   
    47    19    53 1   
    48    20    21 1   
    49    20    54 1   
    50    21    22 1   
    51    21    55 1   
    52    21    56 1   
    53    22    23 2   
    54    22    57 1   
    55    23    24 1   
    56    24    25 ar  
    57    24    29 ar  
    58    25    26 ar  
    59    25    58 1   
    60    26    27 ar  
    61    27    28 ar  
    62    27    59 1   
    63    28    29 ar  
    64    28    60 1   
    65    29    61 1   
@<TRIPOS>SUBSTRUCTURE
     1 3NX         1 TEMP              0 ****  ****    0 ROOT
