@<TRIPOS>MOLECULE
3NY
   16    17     1     0     0
SMALL
abcg2


@<TRIPOS>ATOM
      1 N1          -2.8530     0.6340     0.0210 na         1 3NY      -0.064400
      2 N2          -3.2480    -0.6350     0.0070 nc         1 3NY      -0.144400
      3 N3          -2.2310    -1.4020    -0.0070 nd         1 3NY      -0.197400
      4 C4           0.2360    -0.9720    -0.0160 ca         1 3NY       0.056000
      5 C5           1.1300     0.0750    -0.0100 ca         1 3NY      -0.208200
      6 C6           0.7350     1.4290     0.0080 ca         1 3NY      -0.028000
      7 C7          -0.5940     1.7730     0.0210 ca         1 3NY      -0.118000
      8 O11          2.8830    -1.3940    -0.0250 o          1 3NY      -0.396000
      9 O21          3.3330     0.6910    -0.0310 o          1 3NY      -0.396000
     10 C3A         -1.1100    -0.6210    -0.0040 ca         1 3NY      -0.012600
     11 C7A         -1.5100     0.7180     0.0140 ca         1 3NY      -0.047200
     12 NO1          2.5520    -0.2320    -0.0230 no         1 3NY       0.697200
     13 H4           0.5450    -2.0070    -0.0310 ha         1 3NY       0.173000
     14 H6           1.4800     2.2100     0.0130 ha         1 3NY       0.156000
     15 H7          -0.9040     2.8080     0.0350 ha         1 3NY       0.139000
     16 HN1         -3.5410     1.3720     0.0340 hn         1 3NY       0.391000
@<TRIPOS>BOND
     1     1     2 1   
     2     1    11 1   
     3     1    16 1   
     4     2     3 2   
     5     3    10 1   
     6     4     5 ar  
     7     4    10 ar  
     8     4    13 1   
     9     5     6 ar  
    10     5    12 1   
    11     6     7 ar  
    12     6    14 1   
    13     7    11 ar  
    14     7    15 1   
    15     8    12 1   
    16     9    12 1   
    17    10    11 ar  
@<TRIPOS>SUBSTRUCTURE
     1 3NY         1 TEMP              0 ****  ****    0 ROOT
