@<TRIPOS>MOLECULE
3NY
   16    17     1     0     0
SMALL
No Charge or Current Charge


@<TRIPOS>ATOM
      1 N1          -2.8970     0.6700     0.0220 na         1 3NY      -0.064400
      2 N2          -3.3240    -0.6550     0.0100 nc         1 3NY      -0.144400
      3 N3          -2.2480    -1.4450    -0.0050 nd         1 3NY      -0.197400
      4 C4           0.2210    -0.9620    -0.0160 ca         1 3NY       0.056000
      5 C5           1.1830     0.0840    -0.0100 ca         1 3NY      -0.208200
      6 C6           0.7470     1.4420     0.0070 ca         1 3NY      -0.028000
      7 C7          -0.6310     1.7500     0.0190 ca         1 3NY      -0.118000
      8 O11          2.9720    -1.4360    -0.0380 o          1 3NY      -0.396000
      9 O21          3.4510     0.6920    -0.0180 o          1 3NY      -0.396000
     10 C3A         -1.1380    -0.6150    -0.0030 ca         1 3NY      -0.012600
     11 C7A         -1.5330     0.6810     0.0130 ca         1 3NY      -0.047200
     12 NO1          2.6410    -0.2440    -0.0230 no         1 3NY       0.697200
     13 H4           0.5100    -2.0110    -0.0290 ha         1 3NY       0.173000
     14 H6           1.4670     2.2600     0.0110 ha         1 3NY       0.156000
     15 H7          -0.9750     2.7820     0.0330 ha         1 3NY       0.139000
     16 HN1         -3.5410     1.4550     0.0340 hn         1 3NY       0.391000
@<TRIPOS>BOND
     1     1     2 1   
     2     1    11 1   
     3     1    16 1   
     4     2     3 2   
     5     3    10 1   
     6     4     5 ar  
     7     4    10 ar  
     8     4    13 1   
     9     5     6 ar  
    10     5    12 1   
    11     6     7 ar  
    12     6    14 1   
    13     7    11 ar  
    14     7    15 1   
    15     8    12 1   
    16     9    12 1   
    17    10    11 ar  
@<TRIPOS>SUBSTRUCTURE
     1 3NY         1 TEMP              0 ****  ****    0 ROOT
