@<TRIPOS>MOLECULE
3NZ
   57    60     1     0     0
SMALL
abcg2


@<TRIPOS>ATOM
      1 O            1.7190    -2.9620     1.0780 o          1 3NZ      -0.615100
      2 C            1.7210    -1.7390     1.0730 c          1 3NZ       0.551100
      3 CA           3.0200    -0.9370     1.0820 c3         1 3NZ       0.097500
      4 CB           3.5870    -0.9450    -0.3480 c3         1 3NZ      -0.014100
      5 CG           4.7370     0.0040    -0.5110 ca         1 3NZ      -0.111300
      6 CD2          6.0500    -0.3930    -0.2940 ca         1 3NZ      -0.060000
      7 CE2          7.1140     0.4940    -0.4120 ca         1 3NZ      -0.172000
      8 CZ           6.8720     1.8230    -0.7520 ca         1 3NZ       0.140100
      9 OM           7.8290     2.7640    -0.8890 os         1 3NZ      -0.343100
     10 CMZ          9.1740     2.3940    -0.6650 c3         1 3NZ       0.148900
     11 CE1          5.5580     2.2380    -0.9750 ca         1 3NZ      -0.172000
     12 CD1          4.5150     1.3380    -0.8550 ca         1 3NZ      -0.060000
     13 N            4.0000    -1.4440     2.0130 n8         1 3NZ      -0.982200
     14 N3           0.5910    -1.0130     1.0110 ns         1 3NZ      -0.490900
     15 C3          -0.7130    -1.6310     1.0000 c5         1 3NZ       0.091700
     16 C4          -1.0470    -2.2510    -0.3590 c5         1 3NZ       0.144300
     17 C5          -2.1000    -3.3390    -0.2700 c3         1 3NZ       0.141600
     18 O5          -2.4210    -3.7410    -1.5770 oh         1 3NZ      -0.708000
     19 C2          -1.8060    -0.5690     1.1170 c5         1 3NZ       0.128300
     20 O2          -1.4550     0.4840     1.9570 oh         1 3NZ      -0.724000
     21 C1          -2.0110    -0.1490    -0.3580 c5         1 3NZ       0.272300
     22 O4          -1.4920    -1.1530    -1.1580 os         1 3NZ      -0.425000
     23 N9          -3.4270     0.0420    -0.6530 na         1 3NZ      -0.305300
     24 C8          -4.2000    -0.5200    -1.6290 cc         1 3NZ       0.428700
     25 N7          -5.4230    -0.0680    -1.6360 nd         1 3NZ      -0.561100
     26 C9          -5.4580     0.8440    -0.6140 ca         1 3NZ      -0.092600
     27 C7          -4.2240     0.9210     0.0090 ca         1 3NZ       0.110500
     28 C6          -6.4640     1.6790    -0.0930 ca         1 3NZ       0.458900
     29 N6          -7.6990     1.7200    -0.5890 nv         1 3NZ      -1.058900
     30 N1          -6.1540     2.4620     0.9490 nb         1 3NZ      -0.304000
     31 C10         -4.9280     2.4240     1.4560 ca         1 3NZ       0.195900
     32 N2          -3.9020     1.6890     1.0540 nb         1 3NZ      -0.271000
     33 H1           2.8010     0.1010     1.3530 h1         1 3NZ       0.069700
     34 H2           3.8950    -1.9650    -0.5940 hc         1 3NZ       0.056200
     35 H3           2.7900    -0.6820    -1.0490 hc         1 3NZ       0.056200
     36 H4           6.2600    -1.4220    -0.0300 ha         1 3NZ       0.110500
     37 H5           8.1170     0.1310    -0.2340 ha         1 3NZ       0.120500
     38 H6           9.3390     2.0490     0.3600 h1         1 3NZ       0.039700
     39 H7           9.5050     1.6130    -1.3540 h1         1 3NZ       0.039700
     40 H8           9.7730     3.2860    -0.8340 h1         1 3NZ       0.039700
     41 H9           5.3620     3.2690    -1.2450 ha         1 3NZ       0.120500
     42 H10          3.5030     1.6820    -1.0370 ha         1 3NZ       0.110500
     43 H11          3.6520    -1.3710     2.9610 hn         1 3NZ       0.407500
     44 H12          4.1560    -2.4300     1.8410 hn         1 3NZ       0.407500
     45 H14          0.6480    -0.0150     1.1420 hn         1 3NZ       0.339500
     46 H15         -0.7890    -2.3670     1.8050 h1         1 3NZ       0.088700
     47 H16         -0.1590    -2.6580    -0.8460 h1         1 3NZ       0.114700
     48 H17         -1.6790    -4.1600     0.3250 h1         1 3NZ       0.029700
     49 H18         -2.9870    -2.9790     0.2710 h1         1 3NZ       0.029700
     50 H19         -3.1180    -4.4020    -1.5260 ho         1 3NZ       0.508000
     51 H20         -2.7170    -1.0720     1.4670 h1         1 3NZ       0.059700
     52 H21         -2.1880     1.1270     1.9080 ho         1 3NZ       0.561000
     53 H22         -1.5030     0.7990    -0.5680 h2         1 3NZ       0.096700
     54 H23         -3.8100    -1.2720    -2.2960 h5         1 3NZ       0.089800
     55 H24         -7.9620     1.1610    -1.3810 hn         1 3NZ       0.509500
     56 H25         -8.3800     2.3510    -0.2030 hn         1 3NZ       0.509500
     57 H26         -4.7470     3.0750     2.3040 h5         1 3NZ       0.047100
@<TRIPOS>BOND
     1     1     2 2   
     2     2     3 1   
     3     2    14 1   
     4     3     4 1   
     5     3    13 1   
     6     3    33 1   
     7     4     5 1   
     8     4    34 1   
     9     4    35 1   
    10     5     6 ar  
    11     5    12 ar  
    12     6     7 ar  
    13     6    36 1   
    14     7     8 ar  
    15     7    37 1   
    16     8     9 1   
    17     8    11 ar  
    18     9    10 1   
    19    10    38 1   
    20    10    39 1   
    21    10    40 1   
    22    11    12 ar  
    23    11    41 1   
    24    12    42 1   
    25    13    43 1   
    26    13    44 1   
    27    14    15 1   
    28    14    45 1   
    29    15    16 1   
    30    15    19 1   
    31    15    46 1   
    32    16    17 1   
    33    16    22 1   
    34    16    47 1   
    35    17    18 1   
    36    17    48 1   
    37    17    49 1   
    38    18    50 1   
    39    19    20 1   
    40    19    21 1   
    41    19    51 1   
    42    20    52 1   
    43    21    22 1   
    44    21    23 1   
    45    21    53 1   
    46    23    24 1   
    47    23    27 1   
    48    24    25 2   
    49    24    54 1   
    50    25    26 1   
    51    26    27 ar  
    52    26    28 ar  
    53    27    32 ar  
    54    28    29 1   
    55    28    30 ar  
    56    29    55 1   
    57    29    56 1   
    58    30    31 ar  
    59    31    32 ar  
    60    31    57 1   
@<TRIPOS>SUBSTRUCTURE
     1 3NZ         1 TEMP              0 ****  ****    0 ROOT
