@<TRIPOS>MOLECULE
3NZ
   57    60     1     0     0
SMALL
No Charge or Current Charge


@<TRIPOS>ATOM
      1 O            1.6200    -2.6580     1.6080 o          1 3NZ      -0.615100
      2 C            1.6660    -1.4510     1.3990 c          1 3NZ       0.551100
      3 CA           3.0200    -0.6780     1.2190 c3         1 3NZ       0.097500
      4 CB           3.6530    -1.0280    -0.1550 c3         1 3NZ      -0.014100
      5 CG           4.8330    -0.1360    -0.5350 ca         1 3NZ      -0.111300
      6 CD2          6.1500    -0.6360    -0.4990 ca         1 3NZ      -0.060000
      7 CE2          7.2340     0.1840    -0.8600 ca         1 3NZ      -0.172000
      8 CZ           7.0070     1.5180    -1.2640 ca         1 3NZ       0.140100
      9 OM           8.0300     2.3700    -1.6290 os         1 3NZ      -0.343100
     10 CMZ          9.4090     1.9590    -1.6240 c3         1 3NZ       0.148900
     11 CE1          5.6950     2.0140    -1.3020 ca         1 3NZ      -0.172000
     12 CD1          4.6120     1.1940    -0.9420 ca         1 3NZ      -0.060000
     13 N            4.0090    -0.8750     2.3370 n8         1 3NZ      -0.982200
     14 N3           0.5290    -0.6640     1.3430 ns         1 3NZ      -0.490900
     15 C3          -0.7890    -1.2950     1.5970 c5         1 3NZ       0.091700
     16 C4          -1.1970    -2.1020     0.3160 c5         1 3NZ       0.144300
     17 C5          -2.2870    -3.1760     0.6050 c3         1 3NZ       0.141600
     18 O5          -2.4910    -4.0360    -0.5310 oh         1 3NZ      -0.708000
     19 C2          -1.8440    -0.1440     1.5870 c5         1 3NZ       0.128300
     20 O2          -1.4440     1.0070     2.3600 oh         1 3NZ      -0.724000
     21 C1          -1.9310     0.1450     0.0470 c5         1 3NZ       0.272300
     22 O4          -1.7190    -1.1190    -0.6230 os         1 3NZ      -0.425000
     23 N9          -3.1580     0.7720    -0.4490 na         1 3NZ      -0.305300
     24 C8          -3.1920     1.9230    -1.2430 cc         1 3NZ       0.428700
     25 N7          -4.4560     2.2700    -1.5550 nd         1 3NZ      -0.561100
     26 C9          -5.2240     1.2820    -0.9300 ca         1 3NZ      -0.092600
     27 C7          -4.4520     0.3690    -0.2550 ca         1 3NZ       0.110500
     28 C6          -6.6250     1.1200    -0.9040 ca         1 3NZ       0.458900
     29 N6          -7.4740     1.9730    -1.5370 nv         1 3NZ      -1.058900
     30 N1          -7.1960     0.1060    -0.2360 nb         1 3NZ      -0.304000
     31 C10         -6.3470    -0.7400     0.3970 ca         1 3NZ       0.195900
     32 N2          -4.9950    -0.6610     0.4230 nb         1 3NZ      -0.271000
     33 H1           2.7690     0.3920     1.1970 h1         1 3NZ       0.069700
     34 H2           3.9510    -2.0840    -0.1550 hc         1 3NZ       0.056200
     35 H3           2.8780    -0.9410    -0.9270 hc         1 3NZ       0.056200
     36 H4           6.3350    -1.6620    -0.1870 ha         1 3NZ       0.110500
     37 H5           8.2360    -0.2310    -0.8190 ha         1 3NZ       0.120500
     38 H6           9.7230     1.6570    -0.6160 h1         1 3NZ       0.039700
     39 H7           9.5680     1.1170    -2.3100 h1         1 3NZ       0.039700
     40 H8          10.0530     2.7860    -1.9470 h1         1 3NZ       0.039700
     41 H9           5.5160     3.0400    -1.6140 ha         1 3NZ       0.120500
     42 H10          3.6000     1.5930    -0.9800 ha         1 3NZ       0.110500
     43 H11          3.5750    -0.6040     3.2290 hn         1 3NZ       0.407500
     44 H12          4.1720    -1.8830     2.4560 hn         1 3NZ       0.407500
     45 H14          0.6530     0.3390     1.2710 hn         1 3NZ       0.339500
     46 H15         -0.8130    -1.8940     2.5180 h1         1 3NZ       0.088700
     47 H16         -0.3360    -2.6150    -0.1330 h1         1 3NZ       0.114700
     48 H17         -1.9630    -3.7740     1.4670 h1         1 3NZ       0.029700
     49 H18         -3.2240    -2.6780     0.8860 h1         1 3NZ       0.029700
     50 H19         -3.2390    -4.6390    -0.3090 ho         1 3NZ       0.508000
     51 H20         -2.8030    -0.5310     1.9580 h1         1 3NZ       0.059700
     52 H21         -2.2440     1.5760     2.4800 ho         1 3NZ       0.561000
     53 H22         -1.1120     0.8210    -0.2290 h2         1 3NZ       0.096700
     54 H23         -2.2920     2.4450    -1.5490 h5         1 3NZ       0.089800
     55 H24         -7.0780     2.8560    -1.8510 hn         1 3NZ       0.509500
     56 H25         -8.4460     1.9910    -1.2400 hn         1 3NZ       0.509500
     57 H26         -6.7980    -1.5680     0.9420 h5         1 3NZ       0.047100
@<TRIPOS>BOND
     1     1     2 2   
     2     2     3 1   
     3     2    14 1   
     4     3     4 1   
     5     3    13 1   
     6     3    33 1   
     7     4     5 1   
     8     4    34 1   
     9     4    35 1   
    10     5     6 ar  
    11     5    12 ar  
    12     6     7 ar  
    13     6    36 1   
    14     7     8 ar  
    15     7    37 1   
    16     8     9 1   
    17     8    11 ar  
    18     9    10 1   
    19    10    38 1   
    20    10    39 1   
    21    10    40 1   
    22    11    12 ar  
    23    11    41 1   
    24    12    42 1   
    25    13    43 1   
    26    13    44 1   
    27    14    15 1   
    28    14    45 1   
    29    15    16 1   
    30    15    19 1   
    31    15    46 1   
    32    16    17 1   
    33    16    22 1   
    34    16    47 1   
    35    17    18 1   
    36    17    48 1   
    37    17    49 1   
    38    18    50 1   
    39    19    20 1   
    40    19    21 1   
    41    19    51 1   
    42    20    52 1   
    43    21    22 1   
    44    21    23 1   
    45    21    53 1   
    46    23    24 1   
    47    23    27 1   
    48    24    25 2   
    49    24    54 1   
    50    25    26 1   
    51    26    27 ar  
    52    26    28 ar  
    53    27    32 ar  
    54    28    29 1   
    55    28    30 ar  
    56    29    55 1   
    57    29    56 1   
    58    30    31 ar  
    59    31    32 ar  
    60    31    57 1   
@<TRIPOS>SUBSTRUCTURE
     1 3NZ         1 TEMP              0 ****  ****    0 ROOT
