@<TRIPOS>MOLECULE
3O0
   36    38     1     0     0
SMALL
No Charge or Current Charge


@<TRIPOS>ATOM
      1 ClA         -7.6130    -1.1210    -0.7380 cl         1 3O0      -0.197000
      2 CAC          5.9700     0.8410     0.6460 ca         1 3O0      -0.129000
      3 CAD          4.8700     1.7090     0.5650 ca         1 3O0      -0.026000
      4 CAE          3.6020     1.2230     0.1840 ca         1 3O0      -0.157600
      5 CAF          2.4450     2.1900     0.0950 c          1 3O0       0.648300
      6 CAG          1.0890     1.6670     0.3170 cc         1 3O0      -0.478600
      7 CAH          0.0400     1.9580    -0.4940 cd         1 3O0       0.703900
      8 NAI         -1.1240     1.3000    -0.2940 nd         1 3O0      -0.805000
      9 CAJ         -4.0830     0.5770     0.3070 ca         1 3O0      -0.137000
     10 CAK         -5.4150     0.3990    -0.1120 ca         1 3O0      -0.075500
     11 CAL         -5.9490    -0.8960    -0.2170 ca         1 3O0       0.097000
     12 CAM          5.8250    -0.5210     0.3360 ca         1 3O0      -0.035000
     13 CAN          4.5690    -1.0240    -0.0730 ca         1 3O0      -0.186200
     14 CAO          3.4640    -0.1430    -0.1530 ca         1 3O0      -0.026000
     15 OAP          2.6220     3.3370    -0.2960 o          1 3O0      -0.589100
     16 SAQ          0.6560     0.3520     1.3800 ss         1 3O0      -0.078400
     17 CAR         -0.9420     0.4340     0.6750 cc         1 3O0       0.777300
     18 NAS         -1.9610    -0.3870     1.0500 nu         1 3O0      -0.911900
     19 CAT         -3.2760    -0.5360     0.6140 ca         1 3O0       0.297000
     20 CAU         -3.8240    -1.8270     0.5200 ca         1 3O0      -0.137000
     21 CAV         -5.1550    -2.0100     0.1010 ca         1 3O0      -0.075500
     22 OAW          5.4090    -3.2030    -0.3610 o          1 3O0      -0.398500
     23 NAX          4.4110    -2.4730    -0.4250 no         1 3O0       0.695200
     24 OAY          3.2890    -2.8750    -0.7590 o          1 3O0      -0.398500
     25 HNAA         0.6990     3.5560    -1.4390 hn         1 3O0       0.519500
     26 HNAB        -0.9340     3.1130    -1.7490 hn         1 3O0       0.519500
     27 HAC          6.9410     1.2250     0.9510 ha         1 3O0       0.131000
     28 HAD          5.0020     2.7610     0.8100 ha         1 3O0       0.137000
     29 HAJ         -3.6830     1.5820     0.3990 ha         1 3O0       0.135500
     30 HAK         -6.0320     1.2620    -0.3500 ha         1 3O0       0.132000
     31 HAM          6.6940    -1.1730     0.4070 ha         1 3O0       0.152000
     32 HAO          2.5030    -0.5140    -0.5030 ha         1 3O0       0.160000
     33 HNAS        -1.6090    -1.1570     1.6110 hn         1 3O0       0.511000
     34 HAU         -3.2170    -2.6950     0.7640 ha         1 3O0       0.135500
     35 HAV         -5.5710    -3.0120     0.0240 ha         1 3O0       0.132000
     36 NAA         -0.0030     2.8250    -1.4830 nv         1 3O0      -1.043900
@<TRIPOS>BOND
     1     1    11 1   
     2     2     3 ar  
     3     2    12 ar  
     4     2    27 1   
     5     3     4 ar  
     6     3    28 1   
     7     4     5 1   
     8     4    14 ar  
     9     5     6 1   
    10     5    15 2   
    11     6     7 2   
    12     6    16 1   
    13     7     8 1   
    14     7    36 1   
    15     8    17 2   
    16     9    10 ar  
    17     9    19 ar  
    18     9    29 1   
    19    10    11 ar  
    20    10    30 1   
    21    11    21 ar  
    22    12    13 ar  
    23    12    31 1   
    24    13    14 ar  
    25    13    23 1   
    26    14    32 1   
    27    16    17 1   
    28    17    18 1   
    29    18    19 1   
    30    18    33 1   
    31    19    20 ar  
    32    20    21 ar  
    33    20    34 1   
    34    21    35 1   
    35    22    23 1   
    36    23    24 1   
    37    25    36 1   
    38    26    36 1   
@<TRIPOS>SUBSTRUCTURE
     1 3O0         1 TEMP              0 ****  ****    0 ROOT
