@<TRIPOS>MOLECULE
3O0
   36    38     1     0     0
SMALL
abcg2


@<TRIPOS>ATOM
      1 CLA         -7.8080    -0.7400     0.1510 cl         1 3O0      -0.197000
      2 CAC          5.6470     0.8160     1.2630 ca         1 3O0      -0.129000
      3 CAD          4.5530     1.5790     0.8890 ca         1 3O0      -0.026000
      4 CAE          3.5810     1.0520     0.0390 ca         1 3O0      -0.157600
      5 CAF          2.4250     1.9130    -0.3650 c          1 3O0       0.648300
      6 CAG          1.1160     1.3800    -0.2680 cc         1 3O0      -0.478600
      7 CAH         -0.0720     2.0450    -0.6160 cd         1 3O0       0.703900
      8 NAI         -1.2210     1.3650    -0.3810 nd         1 3O0      -0.805000
      9 CAJ         -4.0030     0.4470    -0.1420 ca         1 3O0      -0.137000
     10 CAK         -5.3880     0.4070    -0.2110 ca         1 3O0      -0.075500
     11 CAL         -6.0780    -0.7020     0.2440 ca         1 3O0       0.097000
     12 CAM          5.8070    -0.4700     0.7730 ca         1 3O0      -0.035000
     13 CAN          4.8490    -0.9700    -0.0950 ca         1 3O0      -0.186200
     14 CAO          3.7350    -0.2310    -0.4660 ca         1 3O0      -0.026000
     15 OAP          2.6520     3.0650    -0.7440 o          1 3O0      -0.589100
     16 SAQ          0.6940    -0.1800     0.4210 ss         1 3O0      -0.078400
     17 CAR         -0.9800     0.2020     0.1530 cc         1 3O0       0.777300
     18 NAS         -1.9110    -0.7010     0.5010 nu         1 3O0      -0.911900
     19 CAT         -3.3010    -0.6350     0.3870 ca         1 3O0       0.297000
     20 CAU         -4.0140    -1.7470     0.8440 ca         1 3O0      -0.137000
     21 CAV         -5.3940    -1.7840     0.7750 ca         1 3O0      -0.075500
     22 OAW          5.9710    -2.9540    -0.2810 o          1 3O0      -0.398500
     23 NAX          5.0160    -2.3100    -0.6420 no         1 3O0       0.695200
     24 OAY          4.1900    -2.7080    -1.4290 o          1 3O0      -0.398500
     25 HNAA         0.6970     3.7950    -1.2910 hn         1 3O0       0.519500
     26 HNAB        -1.0380     3.6740    -1.3420 hn         1 3O0       0.519500
     27 HAC          6.3860     1.2250     1.9380 ha         1 3O0       0.131000
     28 HAD          4.4440     2.5860     1.2710 ha         1 3O0       0.137000
     29 HAJ         -3.4840     1.3190    -0.5040 ha         1 3O0       0.135500
     30 HAK         -5.9190     1.2540    -0.6250 ha         1 3O0       0.132000
     31 HAM          6.6650    -1.0580     1.0640 ha         1 3O0       0.152000
     32 HAO          3.0140    -0.6410    -1.1600 ha         1 3O0       0.160000
     33 HNAS        -1.5650    -1.5580     0.9080 hn         1 3O0       0.511000
     34 HAU         -3.4870    -2.5970     1.2600 ha         1 3O0       0.135500
     35 HAV         -5.9250    -2.6550     1.1350 ha         1 3O0       0.132000
     36 NAA         -0.1430     3.2610    -1.1440 nv         1 3O0      -1.043900
@<TRIPOS>BOND
     1     1    11 1   
     2     2     3 ar  
     3     2    12 ar  
     4     2    27 1   
     5     3     4 ar  
     6     3    28 1   
     7     4     5 1   
     8     4    14 ar  
     9     5     6 1   
    10     5    15 2   
    11     6     7 2   
    12     6    16 1   
    13     7     8 1   
    14     7    36 1   
    15     8    17 2   
    16     9    10 ar  
    17     9    19 ar  
    18     9    29 1   
    19    10    11 ar  
    20    10    30 1   
    21    11    21 ar  
    22    12    13 ar  
    23    12    31 1   
    24    13    14 ar  
    25    13    23 1   
    26    14    32 1   
    27    16    17 1   
    28    17    18 1   
    29    18    19 1   
    30    18    33 1   
    31    19    20 ar  
    32    20    21 ar  
    33    20    34 1   
    34    21    35 1   
    35    22    23 1   
    36    23    24 1   
    37    25    36 1   
    38    26    36 1   
@<TRIPOS>SUBSTRUCTURE
     1 3O0         1 TEMP              0 ****  ****    0 ROOT
