@<TRIPOS>MOLECULE
3O1
   47    47     1     0     0
SMALL
bcc


@<TRIPOS>ATOM
      1 CAA          8.4320    -0.0100    -1.4740 c3         1 3O1      -0.108433
      2 CAV          8.1070     0.4220    -0.0480 c3         1 3O1       0.201800
      3 CAB          8.6940    -0.5380     0.9800 c3         1 3O1      -0.108433
      4 CAC          8.6410     1.8290     0.1980 c3         1 3O1      -0.108433
      5 OAR          6.6780     0.5810     0.1400 os         1 3O1      -0.458900
      6 CAS          5.8140    -0.4300     0.0210 c          1 3O1       0.766100
      7 OAE          6.0980    -1.5780    -0.2600 o          1 3O1      -0.597000
      8 NAP          4.5580     0.0030     0.2440 ns         1 3O1      -0.577900
      9 CAN          3.4210    -0.8910     0.2590 c3         1 3O1       0.122000
     10 CAL          2.1280    -0.0960     0.1720 c3         1 3O1      -0.095400
     11 CAM          0.9070    -1.0070     0.1860 c3         1 3O1      -0.080400
     12 CAO         -0.3690    -0.1980     0.1010 c3         1 3O1       0.140400
     13 OAQ         -1.4670    -1.1030     0.1050 os         1 3O1      -0.317900
     14 CAT         -2.7130    -0.6240     0.0530 ca         1 3O1       0.206100
     15 CAH         -3.0320     0.7330    -0.0030 ca         1 3O1      -0.219500
     16 CAJ         -4.3610     1.1280    -0.0510 ca         1 3O1       0.014000
     17 CAU         -5.3670     0.1780    -0.0480 ca         1 3O1      -0.323500
     18 SAW         -7.0550     0.6710    -0.1010 sy         1 3O1       1.274200
     19 OAF         -7.8500    -0.1880     0.7660 o          1 3O1      -0.618300
     20 OAG         -7.1120     2.1110     0.1230 o          1 3O1      -0.618300
     21 NAD         -7.4700     0.2460    -1.6440 n8         1 3O1      -0.890700
     22 CAK         -5.0570    -1.1810     0.0070 ca         1 3O1       0.014000
     23 CAI         -3.7400    -1.5770     0.0580 ca         1 3O1      -0.219500
     24 H1           9.5090     0.0540    -1.6290 hc         1 3O1       0.049033
     25 H2           8.1270    -1.0340    -1.6760 hc         1 3O1       0.049033
     26 H3           7.9530     0.6470    -2.2010 hc         1 3O1       0.049033
     27 H4           9.7830    -0.4920     0.9290 hc         1 3O1       0.049033
     28 H5           8.3990    -0.2550     1.9920 hc         1 3O1       0.049033
     29 H6           8.3960    -1.5690     0.8060 hc         1 3O1       0.049033
     30 H7           8.2170     2.5440    -0.5080 hc         1 3O1       0.049033
     31 H8           8.4140     2.1690     1.2100 hc         1 3O1       0.049033
     32 H9           9.7240     1.8420     0.0770 hc         1 3O1       0.049033
     33 H10          4.4250     0.9460     0.5730 hn         1 3O1       0.322500
     34 H11          3.4890    -1.5740    -0.5900 h1         1 3O1       0.053200
     35 H12          3.4170    -1.5070     1.1650 h1         1 3O1       0.053200
     36 H13          2.0710     0.6050     1.0110 hc         1 3O1       0.046700
     37 H14          0.9570    -1.7020    -0.6560 hc         1 3O1       0.062200
     38 H15         -0.4430     0.4890     0.9510 h1         1 3O1       0.039700
     39 H16         -0.3790     0.4020    -0.8160 h1         1 3O1       0.039700
     40 H17         -2.2680     1.4960    -0.0080 ha         1 3O1       0.146000
     41 H18         -4.5910     2.1840    -0.0910 ha         1 3O1       0.155000
     42 H19         -8.4790     0.2110    -1.7580 hn         1 3O1       0.415300
     43 H20         -7.0650     0.8630    -2.3410 hn         1 3O1       0.415300
     44 H21         -5.8380    -1.9300     0.0110 ha         1 3O1       0.155000
     45 H22         -3.4910    -2.6290     0.1030 ha         1 3O1       0.146000
     46 H23          2.1350     0.5060    -0.7420 hc         1 3O1       0.046700
     47 H24          0.9010    -1.6060     1.1010 hc         1 3O1       0.062200
@<TRIPOS>BOND
     1     1     2 1   
     2     1    24 1   
     3     1    25 1   
     4     1    26 1   
     5     2     3 1   
     6     2     4 1   
     7     2     5 1   
     8     3    27 1   
     9     3    28 1   
    10     3    29 1   
    11     4    30 1   
    12     4    31 1   
    13     4    32 1   
    14     5     6 1   
    15     6     7 2   
    16     6     8 1   
    17     8     9 1   
    18     8    33 1   
    19     9    10 1   
    20     9    34 1   
    21     9    35 1   
    22    10    11 1   
    23    10    36 1   
    24    10    46 1   
    25    11    12 1   
    26    11    37 1   
    27    11    47 1   
    28    12    13 1   
    29    12    38 1   
    30    12    39 1   
    31    13    14 1   
    32    14    15 ar  
    33    14    23 ar  
    34    15    16 ar  
    35    15    40 1   
    36    16    17 ar  
    37    16    41 1   
    38    17    18 1   
    39    17    22 ar  
    40    18    19 2   
    41    18    20 2   
    42    18    21 1   
    43    21    42 1   
    44    21    43 1   
    45    22    23 ar  
    46    22    44 1   
    47    23    45 1   
@<TRIPOS>SUBSTRUCTURE
     1 3O1         1 TEMP              0 ****  ****    0 ROOT
