@<TRIPOS>MOLECULE
3O1
   47    47     1     0     0
SMALL
No Charge or Current Charge


@<TRIPOS>ATOM
      1 CAA          8.6580    -0.2360    -1.3030 c3         1 3O1      -0.108433
      2 CAV          8.2000     0.4500     0.0100 c3         1 3O1       0.225000
      3 CAB          8.6640    -0.3050     1.2830 c3         1 3O1      -0.108433
      4 CAC          8.7090     1.9080     0.0480 c3         1 3O1      -0.108433
      5 OAR          6.7580     0.5750     0.0170 os         1 3O1      -0.482100
      6 CAS          5.9250    -0.5100    -0.0100 c          1 3O1       0.650100
      7 OAE          6.2410    -1.6870    -0.0430 o          1 3O1      -0.548000
      8 NAP          4.6390    -0.0560     0.0050 ns         1 3O1      -0.510900
      9 CAN          3.4600    -0.9170    -0.0150 c3         1 3O1       0.122000
     10 CAL          2.1570    -0.0950     0.0150 c3         1 3O1      -0.095400
     11 CAM          0.8890    -0.9780    -0.0050 c3         1 3O1      -0.080400
     12 CAO         -0.4160    -0.1590     0.0250 c3         1 3O1       0.163600
     13 OAQ         -1.5120    -1.0870     0.0020 os         1 3O1      -0.341100
     14 CAT         -2.8280    -0.6710     0.0210 ca         1 3O1       0.206100
     15 CAH         -3.1950     0.6900     0.0620 ca         1 3O1      -0.201500
     16 CAJ         -4.5520     1.0550     0.0800 ca         1 3O1       0.032000
     17 CAU         -5.5490     0.0590     0.0550 ca         1 3O1      -0.323500
     18 SAW         -7.2800     0.5130     0.0780 sy         1 3O1       1.132600
     19 OAF         -8.0900    -0.5730     0.6290 o          1 3O1      -0.547500
     20 OAG         -7.4270     1.9060     0.4920 o          1 3O1      -0.547500
     21 NAD         -7.6290     0.5400    -1.5180 n8         1 3O1      -1.001100
     22 CAK         -5.1830    -1.3010     0.0140 ca         1 3O1       0.032000
     23 CAI         -3.8250    -1.6570    -0.0030 ca         1 3O1      -0.201500
     24 H1           9.7430    -0.1370    -1.4270 hc         1 3O1       0.049033
     25 H2           8.4290    -1.3070    -1.3090 hc         1 3O1       0.049033
     26 H3           8.1750     0.2260    -2.1730 hc         1 3O1       0.049033
     27 H4           9.7500    -0.2130     1.4060 hc         1 3O1       0.049033
     28 H5           8.1860     0.1100     2.1780 hc         1 3O1       0.049033
     29 H6           8.4350    -1.3750     1.2320 hc         1 3O1       0.049033
     30 H7           8.3530     2.4680    -0.8250 hc         1 3O1       0.049033
     31 H8           8.3570     2.4200     0.9510 hc         1 3O1       0.049033
     32 H9           9.8060     1.9380     0.0460 hc         1 3O1       0.049033
     33 H10          4.5230     0.9490     0.0330 hn         1 3O1       0.322500
     34 H11          3.4880    -1.5330    -0.9240 h1         1 3O1       0.053200
     35 H12          3.4950    -1.5850     0.8560 h1         1 3O1       0.053200
     36 H13          2.1470     0.5300     0.9170 hc         1 3O1       0.046700
     37 H14          0.8960    -1.6030    -0.9070 hc         1 3O1       0.062200
     38 H15         -0.4440     0.4530     0.9360 h1         1 3O1       0.039700
     39 H16         -0.4520     0.5060    -0.8490 h1         1 3O1       0.039700
     40 H17         -2.4470     1.4760     0.0820 ha         1 3O1       0.128000
     41 H18         -4.8200     2.1110     0.1140 ha         1 3O1       0.137000
     42 H19         -8.0370     1.4680    -1.6090 hn         1 3O1       0.470500
     43 H20         -6.7070     0.6370    -1.9360 hn         1 3O1       0.470500
     44 H21         -5.9430    -2.0810    -0.0060 ha         1 3O1       0.137000
     45 H22         -3.5420    -2.7060    -0.0350 ha         1 3O1       0.128000
     46 H23          2.1390     0.5820    -0.8480 hc         1 3O1       0.046700
     47 H24          0.9040    -1.6550     0.8580 hc         1 3O1       0.062200
@<TRIPOS>BOND
     1     1     2 1   
     2     1    24 1   
     3     1    25 1   
     4     1    26 1   
     5     2     3 1   
     6     2     4 1   
     7     2     5 1   
     8     3    27 1   
     9     3    28 1   
    10     3    29 1   
    11     4    30 1   
    12     4    31 1   
    13     4    32 1   
    14     5     6 1   
    15     6     7 2   
    16     6     8 1   
    17     8     9 1   
    18     8    33 1   
    19     9    10 1   
    20     9    34 1   
    21     9    35 1   
    22    10    11 1   
    23    10    36 1   
    24    10    46 1   
    25    11    12 1   
    26    11    37 1   
    27    11    47 1   
    28    12    13 1   
    29    12    38 1   
    30    12    39 1   
    31    13    14 1   
    32    14    15 ar  
    33    14    23 ar  
    34    15    16 ar  
    35    15    40 1   
    36    16    17 ar  
    37    16    41 1   
    38    17    18 1   
    39    17    22 ar  
    40    18    19 2   
    41    18    20 2   
    42    18    21 1   
    43    21    42 1   
    44    21    43 1   
    45    22    23 ar  
    46    22    44 1   
    47    23    45 1   
@<TRIPOS>SUBSTRUCTURE
     1 3O1         1 TEMP              0 ****  ****    0 ROOT
