@<TRIPOS>MOLECULE
3O2
   74    77     1     0     0
SMALL
No Charge or Current Charge


@<TRIPOS>ATOM
      1 C1           6.6950    -1.1320    -0.4030 c6         1 3O2      -0.316000
      2 F1         -11.2800    -0.3740     3.3740 f          1 3O2      -0.107667
      3 N1           8.8020     0.8530     0.5510 n3         1 3O2      -0.705600
      4 O1           9.5210     2.8870     2.6830 os         1 3O2      -0.433000
      5 S1           5.5380    -2.4650     0.1180 sy         1 3O2       1.038500
      6 C2           7.4740     1.3040     0.0530 c6         1 3O2       0.173300
      7 F2         -12.1820    -1.1990     1.5590 f          1 3O2      -0.107667
      8 O2           5.6760    -3.5680    -0.8420 o          1 3O2      -0.519000
      9 C3           9.2200    -0.4110    -0.1070 c6         1 3O2       0.173300
     10 F3         -13.2820     0.2220     2.7780 f          1 3O2      -0.107667
     11 N3          -4.5750     0.7820    -1.8010 na         1 3O2       0.245600
     12 O3           5.7800    -2.7010     1.5480 o          1 3O2      -0.519000
     13 C4           8.1560    -1.5390     0.0510 c6         1 3O2      -0.053400
     14 N4          -4.8330     2.0420    -2.2430 nc         1 3O2      -0.171800
     15 O4          -0.0370    -0.2510    -0.2140 os         1 3O2      -0.338100
     16 C5           6.3890     0.2300     0.3090 c6         1 3O2      -0.053400
     17 N5          -6.0180     2.3190    -1.7820 nd         1 3O2      -0.375000
     18 C6           6.5120    -0.9920    -1.9350 c          1 3O2       0.602100
     19 N6          -5.5700     0.2360    -1.0590 nc         1 3O2      -0.521800
     20 O6           7.5240    -1.2990    -4.1730 oh         1 3O2      -0.432100
     21 C7           9.8620     1.9010     0.4660 c3         1 3O2       0.173800
     22 O7         -11.5210     1.0240     1.5390 os         1 3O2      -0.404100
     23 C8           9.6240     3.2060     1.2800 c3         1 3O2       0.160600
     24 C9           9.2850     4.0190     3.5350 c3         1 3O2       0.142900
     25 C10          3.8650    -1.7920    -0.0160 ca         1 3O2      -0.312500
     26 C11          1.2380    -0.7790    -0.1840 ca         1 3O2       0.206100
     27 C12          3.0550    -2.1050    -1.1270 ca         1 3O2       0.035000
     28 C13          3.3470    -0.9900     1.0200 ca         1 3O2       0.035000
     29 C14          2.0400    -0.4830     0.9270 ca         1 3O2      -0.193000
     30 C15          1.7480    -1.5970    -1.2130 ca         1 3O2      -0.193000
     31 C16         -0.9390    -0.4920    -1.3060 c3         1 3O2       0.164600
     32 C17         -2.2490     0.2520    -0.9920 c3         1 3O2      -0.103400
     33 C18         -3.3170     0.0770    -2.0950 c3         1 3O2       0.092600
     34 C19         -6.4500     1.2190    -1.0690 cd         1 3O2       0.553500
     35 C20         -7.7620     1.1480    -0.3850 ca         1 3O2      -0.114500
     36 C21        -10.2810     1.0150     0.9260 ca         1 3O2       0.105100
     37 C22         -8.1440    -0.0100     0.3310 ca         1 3O2      -0.068500
     38 C23         -8.6610     2.2370    -0.4340 ca         1 3O2      -0.068500
     39 C24         -9.9060     2.1660     0.2170 ca         1 3O2      -0.108500
     40 C25         -9.3890    -0.0790     0.9810 ca         1 3O2      -0.108500
     41 C26        -12.0530    -0.0770     2.3040 c3         1 3O2       0.515000
     42 H2           7.1600     2.2240     0.5650 h1         1 3O2       0.038700
     43 H2A          7.5210     1.5320    -1.0230 h1         1 3O2       0.038700
     44 HN2          8.5080    -1.4590    -2.3210 hn         1 3O2       0.352500
     45 H3           9.4290    -0.2260    -1.1690 h1         1 3O2       0.038700
     46 H3A         10.1630    -0.7660     0.3350 h1         1 3O2       0.038700
     47 H4           8.1490    -1.8060     1.1170 hc         1 3O2       0.070700
     48 H4A          8.4940    -2.4480    -0.4670 hc         1 3O2       0.070700
     49 H5           5.4190     0.6260    -0.0200 hc         1 3O2       0.070700
     50 H5A          6.3060     0.0790     1.3940 hc         1 3O2       0.070700
     51 HO6          8.1430    -0.6240    -4.5390 ho         1 3O2       0.451000
     52 H7          10.8160     1.4790     0.8060 h1         1 3O2       0.037700
     53 H7A         10.0060     2.1870    -0.5850 h1         1 3O2       0.037700
     54 H8           8.7150     3.7090     0.9260 h1         1 3O2       0.019700
     55 H8A         10.4680     3.8860     1.1070 h1         1 3O2       0.019700
     56 H9           9.2200     3.7000     4.5830 h1         1 3O2       0.027367
     57 H9A         10.1020     4.7480     3.4490 h1         1 3O2       0.027367
     58 H9B          8.3440     4.5170     3.2690 h1         1 3O2       0.027367
     59 H12          3.4340    -2.7370    -1.9300 ha         1 3O2       0.139500
     60 H13          3.9490    -0.7560     1.8970 ha         1 3O2       0.139500
     61 H14          1.6450     0.1400     1.7250 ha         1 3O2       0.130000
     62 H15          1.1510    -1.8490    -2.0830 ha         1 3O2       0.130000
     63 H16         -0.5180    -0.1150    -2.2480 h1         1 3O2       0.044200
     64 H16A        -1.1420    -1.5650    -1.4120 h1         1 3O2       0.044200
     65 H17         -2.6510    -0.1150    -0.0390 hc         1 3O2       0.080200
     66 H17A        -2.0350     1.3200    -0.8640 hc         1 3O2       0.080200
     67 H18         -3.5430    -0.9890    -2.2220 h1         1 3O2       0.080700
     68 H18A        -2.9250     0.4500    -3.0500 h1         1 3O2       0.080700
     69 H22         -7.4740    -0.8670     0.3890 ha         1 3O2       0.139500
     70 H23         -8.4020     3.1440    -0.9750 ha         1 3O2       0.139500
     71 H24        -10.5870     3.0120     0.1700 ha         1 3O2       0.138500
     72 H25         -9.6370    -0.9890     1.5180 ha         1 3O2       0.138500
     73 N2           7.6410    -1.1300    -2.7370 ns         1 3O2      -0.368400
     74 O5           5.4140    -0.8230    -2.4440 o          1 3O2      -0.554100
@<TRIPOS>BOND
     1     1     5 1   
     2     1    13 1   
     3     1    16 1   
     4     1    18 1   
     5     2    41 1   
     6     3     6 1   
     7     3     9 1   
     8     3    21 1   
     9     4    23 1   
    10     4    24 1   
    11     5     8 2   
    12     5    12 2   
    13     5    25 1   
    14     6    16 1   
    15     6    42 1   
    16     6    43 1   
    17     7    41 1   
    18     9    13 1   
    19     9    45 1   
    20     9    46 1   
    21    10    41 1   
    22    11    14 1   
    23    11    19 1   
    24    11    33 1   
    25    13    47 1   
    26    13    48 1   
    27    14    17 2   
    28    15    26 1   
    29    15    31 1   
    30    16    49 1   
    31    16    50 1   
    32    17    34 1   
    33    18    73 1   
    34    18    74 2   
    35    19    34 2   
    36    20    51 1   
    37    20    73 1   
    38    21    23 1   
    39    21    52 1   
    40    21    53 1   
    41    22    36 1   
    42    22    41 1   
    43    23    54 1   
    44    23    55 1   
    45    24    56 1   
    46    24    57 1   
    47    24    58 1   
    48    25    27 ar  
    49    25    28 ar  
    50    26    29 ar  
    51    26    30 ar  
    52    27    30 ar  
    53    27    59 1   
    54    28    29 ar  
    55    28    60 1   
    56    29    61 1   
    57    30    62 1   
    58    31    32 1   
    59    31    63 1   
    60    31    64 1   
    61    32    33 1   
    62    32    65 1   
    63    32    66 1   
    64    33    67 1   
    65    33    68 1   
    66    34    35 1   
    67    35    37 ar  
    68    35    38 ar  
    69    36    39 ar  
    70    36    40 ar  
    71    37    40 ar  
    72    37    69 1   
    73    38    39 ar  
    74    38    70 1   
    75    39    71 1   
    76    40    72 1   
    77    44    73 1   
@<TRIPOS>SUBSTRUCTURE
     1 3O2         1 TEMP              0 ****  ****    0 ROOT
