@<TRIPOS>MOLECULE
3O2
   74    77     1     0     0
SMALL
bcc


@<TRIPOS>ATOM
      1 C1           6.5400    -0.7700    -0.3170 c6         1 3O2      -0.205200
      2 F1         -11.6070    -0.7840     1.9570 f          1 3O2      -0.228967
      3 N1           8.6770     1.0720     0.4370 n3         1 3O2      -0.705600
      4 O1           9.8150     2.5590     2.6260 os         1 3O2      -0.386600
      5 S1           5.5400    -2.2020     0.2680 sy         1 3O2       1.069300
      6 C2           7.3110     1.5420     0.3220 c6         1 3O2       0.173300
      7 F2         -12.3760     0.6020     0.5160 f          1 3O2      -0.228967
      8 O2           5.7850    -3.3020    -0.6670 o          1 3O2      -0.589800
      9 C3           8.9260    -0.0090    -0.4930 c6         1 3O2       0.173300
     10 F3         -12.8400     0.8600     2.6060 f          1 3O2      -0.228967
     11 N3          -4.4330     0.2400    -1.9710 na         1 3O2       0.274900
     12 O3           5.8500    -2.4060     1.6810 o          1 3O2      -0.589800
     13 C4           8.0130    -1.1940    -0.2120 c6         1 3O2      -0.053400
     14 N4          -4.8580     1.1770    -2.7680 nc         1 3O2      -0.171800
     15 O4          -0.0660    -0.5240    -0.0900 os         1 3O2      -0.314900
     16 C5           6.3180     0.4230     0.6130 c6         1 3O2      -0.053400
     17 N5          -6.0080     1.5540    -2.3170 nd         1 3O2      -0.375000
     18 C6           6.0660    -0.4420    -1.7440 c          1 3O2       0.669100
     19 N6          -5.2560    -0.0290    -0.9930 nc         1 3O2      -0.521800
     20 O6           6.0700    -1.1340    -3.9650 oh         1 3O2      -0.393100
     21 C7           9.6560     2.1300     0.2800 c3         1 3O2       0.173800
     22 O7         -10.8390     1.3050     1.9650 os         1 3O2      -0.380900
     23 C8           9.6270     3.1720     1.3780 c3         1 3O2       0.137400
     24 C9           9.8290     3.4860     3.6790 c3         1 3O2       0.119700
     25 C10          3.8560    -1.7130     0.1330 ca         1 3O2      -0.312500
     26 C11          1.2040    -0.9400    -0.0780 ca         1 3O2       0.206100
     27 C12          3.1510    -1.9810    -1.0310 ca         1 3O2       0.017000
     28 C13          3.2390    -1.0700     1.2040 ca         1 3O2       0.017000
     29 C14          1.9220    -0.6820     1.0960 ca         1 3O2      -0.211000
     30 C15          1.8250    -1.5980    -1.1400 ca         1 3O2      -0.211000
     31 C16         -0.8650    -0.7600    -1.2400 c3         1 3O2       0.141400
     32 C17         -2.2220    -0.1410    -0.9760 c3         1 3O2      -0.103400
     33 C18         -3.1550    -0.4230    -2.1440 c3         1 3O2       0.063300
     34 C19         -6.2490     0.8100    -1.2240 cd         1 3O2       0.553500
     35 C20         -7.4490     0.9190    -0.4020 ca         1 3O2      -0.114500
     36 C21         -9.7240     1.1420     1.1530 ca         1 3O2       0.105100
     37 C22         -7.5820     0.1650     0.7620 ca         1 3O2      -0.086500
     38 C23         -8.4720     1.7900    -0.7730 ca         1 3O2      -0.086500
     39 C24         -9.6140     1.9030     0.0020 ca         1 3O2      -0.126500
     40 C25         -8.7200     0.2740     1.5440 ca         1 3O2      -0.126500
     41 C26        -11.8920     0.5040     1.7550 c3         1 3O2       0.855700
     42 H2           7.1310     2.3330     1.0510 h1         1 3O2       0.038700
     43 H2A          7.1110     1.9760    -0.6710 h1         1 3O2       0.038700
     44 HN2          7.0040    -2.1230    -2.5050 hn         1 3O2       0.352500
     45 H3           8.8160     0.3120    -1.5440 h1         1 3O2       0.038700
     46 H3A          9.9590    -0.3450    -0.3770 h1         1 3O2       0.038700
     47 H4           8.2030    -1.5410     0.8050 hc         1 3O2       0.070700
     48 H4A          8.2700    -2.0180    -0.8780 hc         1 3O2       0.070700
     49 H5           5.3040     0.8110     0.5250 hc         1 3O2       0.070700
     50 H5A          6.4640     0.0950     1.6430 hc         1 3O2       0.070700
     51 HO6          6.7180    -0.6340    -4.4800 ho         1 3O2       0.412000
     52 H7          10.6470     1.6690     0.2630 h1         1 3O2       0.037700
     53 H7A          9.5460     2.6620    -0.6800 h1         1 3O2       0.037700
     54 H8           8.6860     3.7410     1.3630 h1         1 3O2       0.019700
     55 H8A         10.4240     3.9020     1.1710 h1         1 3O2       0.019700
     56 H9           9.9560     2.9390     4.6130 h1         1 3O2       0.027367
     57 H9A         10.6510     4.2060     3.5850 h1         1 3O2       0.027367
     58 H9B          8.8930     4.0560     3.7380 h1         1 3O2       0.027367
     59 H12          3.6170    -2.4950    -1.8610 ha         1 3O2       0.157500
     60 H13          3.7750    -0.8730     2.1220 ha         1 3O2       0.157500
     61 H14          1.4330    -0.1820     1.9210 ha         1 3O2       0.148000
     62 H15          1.2950    -1.8270    -2.0550 ha         1 3O2       0.148000
     63 H16         -0.4040    -0.3080    -2.1240 h1         1 3O2       0.044200
     64 H16A        -0.9590    -1.8360    -1.4220 h1         1 3O2       0.044200
     65 H17         -2.6450    -0.5540    -0.0580 hc         1 3O2       0.080200
     66 H17A        -2.1160     0.9380    -0.8420 hc         1 3O2       0.080200
     67 H18         -3.3440    -1.4900    -2.2540 h1         1 3O2       0.080700
     68 H18A        -2.7470    -0.0520    -3.0820 h1         1 3O2       0.080700
     69 H22         -6.7940    -0.5080     1.0690 ha         1 3O2       0.157500
     70 H23         -8.3820     2.3860    -1.6710 ha         1 3O2       0.157500
     71 H24        -10.3990     2.5910    -0.2830 ha         1 3O2       0.156500
     72 H25         -8.8090    -0.3010     2.4570 ha         1 3O2       0.156500
     73 N2           6.5850    -1.2270    -2.7070 ns         1 3O2      -0.435400
     74 O5           5.3000     0.4710    -1.9690 o          1 3O2      -0.554100
@<TRIPOS>BOND
     1     1     5 1   
     2     1    13 1   
     3     1    16 1   
     4     1    18 1   
     5     2    41 1   
     6     3     6 1   
     7     3     9 1   
     8     3    21 1   
     9     4    23 1   
    10     4    24 1   
    11     5     8 2   
    12     5    12 2   
    13     5    25 1   
    14     6    16 1   
    15     6    42 1   
    16     6    43 1   
    17     7    41 1   
    18     9    13 1   
    19     9    45 1   
    20     9    46 1   
    21    10    41 1   
    22    11    14 1   
    23    11    19 1   
    24    11    33 1   
    25    13    47 1   
    26    13    48 1   
    27    14    17 2   
    28    15    26 1   
    29    15    31 1   
    30    16    49 1   
    31    16    50 1   
    32    17    34 1   
    33    18    73 1   
    34    18    74 2   
    35    19    34 2   
    36    20    51 1   
    37    20    73 1   
    38    21    23 1   
    39    21    52 1   
    40    21    53 1   
    41    22    36 1   
    42    22    41 1   
    43    23    54 1   
    44    23    55 1   
    45    24    56 1   
    46    24    57 1   
    47    24    58 1   
    48    25    27 ar  
    49    25    28 ar  
    50    26    29 ar  
    51    26    30 ar  
    52    27    30 ar  
    53    27    59 1   
    54    28    29 ar  
    55    28    60 1   
    56    29    61 1   
    57    30    62 1   
    58    31    32 1   
    59    31    63 1   
    60    31    64 1   
    61    32    33 1   
    62    32    65 1   
    63    32    66 1   
    64    33    67 1   
    65    33    68 1   
    66    34    35 1   
    67    35    37 ar  
    68    35    38 ar  
    69    36    39 ar  
    70    36    40 ar  
    71    37    40 ar  
    72    37    69 1   
    73    38    39 ar  
    74    38    70 1   
    75    39    71 1   
    76    40    72 1   
    77    44    73 1   
@<TRIPOS>SUBSTRUCTURE
     1 3O2         1 TEMP              0 ****  ****    0 ROOT
