@<TRIPOS>MOLECULE
3O3
   30    29     1     0     0
SMALL
No Charge or Current Charge


@<TRIPOS>ATOM
      1 N2          -3.7000     0.5670    -1.8320 n8         1 3O3      -0.981200
      2 N3           0.2580    -0.1350     0.1340 n7         1 3O3      -0.853400
      3 O3          -4.9820     1.6920     0.6630 o          1 3O3      -0.759500
      4 C4          -3.5880     0.0350    -0.4240 c3         1 3O3       0.015500
      5 OXT         -5.3730    -0.3620     1.1600 o          1 3O3      -0.759500
      6 C5          -4.7210     0.4980     0.5840 c          1 3O3       0.691000
      7 C6          -2.1850     0.3270     0.1740 c3         1 3O3      -0.057400
      8 C7          -1.0230    -0.3830    -0.5580 c3         1 3O3       0.167800
      9 O7           5.4150     1.5200    -0.1510 o          1 3O3      -0.779000
     10 C8           1.4670    -0.7720    -0.4970 c3         1 3O3       0.032500
     11 O8           4.4500     2.0110     1.7050 o          1 3O3      -0.779000
     12 C9           2.7670    -0.2440     0.1720 c3         1 3O3      -0.030400
     13 C10          3.0550     1.2620    -0.0680 c3         1 3O3      -0.193400
     14 C11          1.4550    -2.3570    -0.4880 c          1 3O3       0.694000
     15 C12          4.4160     1.6430     0.5410 c          1 3O3       0.711000
     16 HN2         -4.6180     0.3090    -2.2130 hn         1 3O3       0.364500
     17 HNXT        -3.7460     1.5920    -1.7830 hn         1 3O3       0.364500
     18 HN3          0.1770    -0.5130     1.0860 hn         1 3O3       0.405000
     19 H4          -3.6810    -1.0580    -0.4990 h1         1 3O3       0.036700
     20 H6          -2.0080     1.4090     0.1850 hc         1 3O3       0.038200
     21 H6A         -2.1850    -0.0010     1.2220 hc         1 3O3       0.038200
     22 H7          -0.9680    -0.0190    -1.5930 h1         1 3O3       0.018200
     23 H7A         -1.2320    -1.4620    -0.5930 h1         1 3O3       0.018200
     24 H8           1.5100    -0.4710    -1.5540 h1         1 3O3       0.026700
     25 H9           2.7330    -0.4440     1.2510 hc         1 3O3       0.032200
     26 H9A          3.6120    -0.8220    -0.2230 hc         1 3O3       0.032200
     27 H10          3.0740     1.3940    -1.1570 hc         1 3O3       0.020200
     28 H10A         2.2480     1.8140     0.4290 hc         1 3O3       0.020200
     29 O5           1.5070    -2.9480    -1.5590 o          1 3O3      -0.766500
     30 O6           1.3340    -2.9400     0.5830 o          1 3O3      -0.766500
@<TRIPOS>BOND
     1     1     4 1   
     2     1    16 1   
     3     1    17 1   
     4     2     8 1   
     5     2    10 1   
     6     2    18 1   
     7     3     6 1   
     8     4     6 1   
     9     4     7 1   
    10     4    19 1   
    11     5     6 1   
    12     7     8 1   
    13     7    20 1   
    14     7    21 1   
    15     8    22 1   
    16     8    23 1   
    17     9    15 1   
    18    10    12 1   
    19    10    14 1   
    20    10    24 1   
    21    11    15 1   
    22    12    13 1   
    23    12    25 1   
    24    12    26 1   
    25    13    15 1   
    26    13    27 1   
    27    13    28 1   
    28    14    29 1   
    29    14    30 1   
@<TRIPOS>SUBSTRUCTURE
     1 3O3         1 TEMP              0 ****  ****    0 ROOT
