@<TRIPOS>MOLECULE
3O3
   30    29     1     0     0
SMALL
abcg2


@<TRIPOS>ATOM
      1 N2          -3.4170     0.5750    -1.8160 n8         1 3O3      -0.981200
      2 N3           0.2620    -0.2850     0.2260 n7         1 3O3      -0.853400
      3 O3          -5.1950     1.7380    -0.0410 o          1 3O3      -0.759500
      4 C4          -3.4870     0.1020    -0.4410 c3         1 3O3       0.015500
      5 OXT         -4.7470     0.2640     1.5690 o          1 3O3      -0.759500
      6 C5          -4.5790     0.7650     0.4370 c          1 3O3       0.691000
      7 C6          -2.1230     0.2560     0.2340 c3         1 3O3      -0.057400
      8 C7          -0.9960    -0.4840    -0.4690 c3         1 3O3       0.167800
      9 O7           4.2900     3.0150     0.0970 o          1 3O3      -0.779000
     10 C8           1.3940    -0.9240    -0.4210 c3         1 3O3       0.032500
     11 O8           4.8610     1.1390     1.1450 o          1 3O3      -0.779000
     12 C9           2.7080    -0.3410     0.1150 c3         1 3O3      -0.030400
     13 C10          2.8620     1.1430    -0.1680 c3         1 3O3      -0.193400
     14 C11          1.4320    -2.4640    -0.2700 c          1 3O3       0.694000
     15 C12          4.1190     1.8150     0.4100 c          1 3O3       0.711000
     16 HN2         -4.3460     0.5280    -2.2170 hn         1 3O3       0.364500
     17 HNXT        -3.2070     1.5670    -1.7960 hn         1 3O3       0.364500
     18 HN3          0.1780    -0.6940     1.1510 hn         1 3O3       0.405000
     19 H4          -3.7150    -0.9720    -0.4770 h1         1 3O3       0.036700
     20 H6          -1.8650     1.3200     0.2970 hc         1 3O3       0.038200
     21 H6A         -2.2090    -0.1030     1.2630 hc         1 3O3       0.038200
     22 H7          -0.8890    -0.1020    -1.4860 h1         1 3O3       0.018200
     23 H7A         -1.2740    -1.5470    -0.5680 h1         1 3O3       0.018200
     24 H8           1.3370    -0.6890    -1.4910 h1         1 3O3       0.026700
     25 H9           2.7640    -0.5230     1.1940 hc         1 3O3       0.032200
     26 H9A          3.5410    -0.8930    -0.3280 hc         1 3O3       0.032200
     27 H10          2.8520     1.3120    -1.2520 hc         1 3O3       0.020200
     28 H10A         1.9810     1.6720     0.2070 hc         1 3O3       0.020200
     29 O5           2.0800    -3.0940    -1.1330 o          1 3O3      -0.766500
     30 O6           0.8560    -2.9540     0.7230 o          1 3O3      -0.766500
@<TRIPOS>BOND
     1     1     4 1   
     2     1    16 1   
     3     1    17 1   
     4     2     8 1   
     5     2    10 1   
     6     2    18 1   
     7     3     6 1   
     8     4     6 1   
     9     4     7 1   
    10     4    19 1   
    11     5     6 1   
    12     7     8 1   
    13     7    20 1   
    14     7    21 1   
    15     8    22 1   
    16     8    23 1   
    17     9    15 1   
    18    10    12 1   
    19    10    14 1   
    20    10    24 1   
    21    11    15 1   
    22    12    13 1   
    23    12    25 1   
    24    12    26 1   
    25    13    15 1   
    26    13    27 1   
    27    13    28 1   
    28    14    29 1   
    29    14    30 1   
@<TRIPOS>SUBSTRUCTURE
     1 3O3         1 TEMP              0 ****  ****    0 ROOT
