@<TRIPOS>MOLECULE
3O4
   52    55     1     0     0
SMALL
bcc


@<TRIPOS>ATOM
      1 O23         -7.6500    -2.7470    -0.0650 o          1 3O4      -0.571100
      2 C22         -8.3030    -1.7280     0.0650 c          1 3O4       0.676100
      3 N24         -7.7540    -0.4840     0.1620 ns         1 3O4      -0.476100
      4 C25         -6.4190    -0.0970     0.1120 ca         1 3O4       0.095600
      5 C26         -6.1570     1.2770     0.1390 ca         1 3O4      -0.184500
      6 C19         -9.8100    -1.7240     0.0980 c3         1 3O4      -0.183100
      7 C17         -4.0450    -0.4830     0.0090 ca         1 3O4      -0.061000
      8 C16         -3.7750     0.8840     0.0300 cp         1 3O4      -0.195500
      9 C12         -2.3850     1.3730    -0.0180 cp         1 3O4       0.571800
     10 C11         -2.0640     2.7290    -0.1450 ca         1 3O4      -0.423600
     11 C10         -0.7220     3.0400    -0.1930 ca         1 3O4       0.475200
     12 N15          0.2460     2.1350    -0.1250 nb         1 3O4      -0.760000
     13 C14         -0.1560     0.8730     0.0020 ca         1 3O4       0.920900
     14 N13         -1.4250     0.4620     0.0560 nb         1 3O4      -0.790000
     15 N7           0.7580    -0.1270     0.0930 nu         1 3O4      -0.733300
     16 C1           2.1530    -0.1100     0.0850 ca         1 3O4       0.150600
     17 C2           2.7980    -1.3060     0.4210 ca         1 3O4      -0.141000
     18 C3           4.1730    -1.4070     0.4250 ca         1 3O4      -0.147000
     19 C4           4.9870    -0.3180     0.0840 ca         1 3O4       0.118600
     20 C5           4.3370     0.8680    -0.2560 ca         1 3O4      -0.147000
     21 C6           2.9500     0.9800    -0.2500 ca         1 3O4      -0.141000
     22 C90         -5.3370    -0.9790     0.0450 ca         1 3O4      -0.184500
     23 N8           6.3810    -0.4390     0.1250 nh         1 3O4      -0.638000
     24 C13         -4.8640     1.7550     0.0970 ca         1 3O4      -0.061000
     25 C9           6.9560    -1.5930    -0.5540 c6         1 3O4       0.155800
     26 C31          8.4160    -1.7490    -0.1790 c6         1 3O4       0.124900
     27 O30          9.1550    -0.5810    -0.4530 os         1 3O4      -0.399600
     28 C29          8.6140     0.5160     0.2450 c6         1 3O4       0.124900
     29 C28          7.1600     0.7590    -0.1170 c6         1 3O4       0.155800
     30 H24         -8.4090     0.2770     0.2510 hn         1 3O4       0.315500
     31 H191       -10.1800    -2.7080     0.3740 hc         1 3O4       0.065033
     32 H192       -10.2080    -0.9870     0.7940 hc         1 3O4       0.065033
     33 H193       -10.1950    -1.4810    -0.8950 hc         1 3O4       0.065033
     34 H26         -6.9790     1.9800     0.1930 ha         1 3O4       0.148500
     35 H90         -5.4890    -2.0450     0.0240 ha         1 3O4       0.148500
     36 H13         -4.7230     2.8270     0.1240 ha         1 3O4       0.143000
     37 H17         -3.2240    -1.1850    -0.0390 ha         1 3O4       0.143000
     38 H11         -2.8060     3.5080    -0.2130 ha         1 3O4       0.151000
     39 H10         -0.4050     4.0730    -0.2960 h4         1 3O4       0.020100
     40 H2           2.2100    -2.1730     0.6990 ha         1 3O4       0.146000
     41 H6           2.5040     1.9230    -0.5200 ha         1 3O4       0.146000
     42 H3           4.6140    -2.3490     0.7230 ha         1 3O4       0.132000
     43 H5           4.9000     1.7450    -0.5440 ha         1 3O4       0.132000
     44 H281         7.0910     1.0910    -1.1650 h1         1 3O4       0.046200
     45 H282         6.7900     1.5740     0.5080 h1         1 3O4       0.046200
     46 H91C         6.4390    -2.5060    -0.2640 h1         1 3O4       0.046200
     47 H92C         6.8590    -1.4940    -1.6460 h1         1 3O4       0.046200
     48 H291         8.6950     0.3580     1.3300 h1         1 3O4       0.051950
     49 H292         9.2060     1.3950    -0.0130 h1         1 3O4       0.051950
     50 H311         8.4910    -2.0090     0.8870 h1         1 3O4       0.051950
     51 H312         8.8580    -2.5630    -0.7550 h1         1 3O4       0.051950
     52 H7           0.3390    -1.0340     0.2340 hn         1 3O4       0.452800
@<TRIPOS>BOND
     1     1     2 2   
     2     2     3 1   
     3     2     6 1   
     4     3     4 1   
     5     3    30 1   
     6     4     5 ar  
     7     4    22 ar  
     8     5    24 ar  
     9     5    34 1   
    10     6    31 1   
    11     6    32 1   
    12     6    33 1   
    13     7     8 ar  
    14     7    22 ar  
    15     7    37 1   
    16     8     9 1   
    17     8    24 ar  
    18     9    10 ar  
    19     9    14 ar  
    20    10    11 ar  
    21    10    38 1   
    22    11    12 ar  
    23    11    39 1   
    24    12    13 ar  
    25    13    14 ar  
    26    13    15 1   
    27    15    16 1   
    28    15    52 1   
    29    16    17 ar  
    30    16    21 ar  
    31    17    18 ar  
    32    17    40 1   
    33    18    19 ar  
    34    18    42 1   
    35    19    20 ar  
    36    19    23 1   
    37    20    21 ar  
    38    20    43 1   
    39    21    41 1   
    40    22    35 1   
    41    23    25 1   
    42    23    29 1   
    43    24    36 1   
    44    25    26 1   
    45    25    46 1   
    46    25    47 1   
    47    26    27 1   
    48    26    50 1   
    49    26    51 1   
    50    27    28 1   
    51    28    29 1   
    52    28    48 1   
    53    28    49 1   
    54    29    44 1   
    55    29    45 1   
@<TRIPOS>SUBSTRUCTURE
     1 3O4         1 TEMP              0 ****  ****    0 ROOT
