@<TRIPOS>MOLECULE
3O4
   52    55     1     0     0
SMALL
No Charge or Current Charge


@<TRIPOS>ATOM
      1 O23         -7.9320    -2.7500    -0.5320 o          1 3O4      -0.571100
      2 C22         -8.5120    -1.7340    -0.1710 c          1 3O4       0.609100
      3 N24         -7.8910    -0.5250     0.1120 ns         1 3O4      -0.150000
      4 C25         -6.5300    -0.1140     0.0820 ca         1 3O4       0.003000
      5 C26         -6.2420     1.2160     0.4320 ca         1 3O4      -0.166500
      6 C19        -10.0280    -1.7070     0.0040 c3         1 3O4      -0.183100
      7 C17         -4.1400    -0.4860    -0.2790 ca         1 3O4      -0.043000
      8 C16         -3.8360     0.8570     0.0670 cp         1 3O4      -0.195500
      9 C12         -2.4200     1.3650     0.0600 cp         1 3O4       0.243500
     10 C11         -2.0910     2.7400    -0.0210 ca         1 3O4      -0.275000
     11 C10         -0.7360     3.1030    -0.0200 ca         1 3O4       0.146900
     12 N15          0.2370     2.1770     0.0510 nb         1 3O4      -0.234000
     13 C14         -0.1620     0.8940     0.1070 ca         1 3O4       0.394900
     14 N13         -1.4290     0.4510     0.1250 nb         1 3O4      -0.264000
     15 N7           0.7990    -0.1040     0.2120 nu         1 3O4      -0.926900
     16 C1           2.1970    -0.1380     0.1250 ca         1 3O4       0.289000
     17 C2           2.8880    -1.1740     0.7760 ca         1 3O4      -0.123000
     18 C3           4.2920    -1.2560     0.7060 ca         1 3O4      -0.129000
     19 C4           5.0330    -0.3090    -0.0270 ca         1 3O4       0.257000
     20 C5           4.3370     0.7220    -0.6910 ca         1 3O4      -0.129000
     21 C6           2.9330     0.8030    -0.6210 ca         1 3O4      -0.123000
     22 C90         -5.4620    -0.9640    -0.2730 ca         1 3O4      -0.166500
     23 N8           6.4450    -0.4050    -0.0870 nh         1 3O4      -0.776400
     24 C13         -4.9220     1.6960     0.4260 ca         1 3O4      -0.043000
     25 C9           7.1030    -1.6890    -0.5030 c6         1 3O4       0.155800
     26 C31          8.5790    -1.7850    -0.0110 c6         1 3O4       0.148100
     27 O30          9.3250    -0.6050    -0.3890 os         1 3O4      -0.446000
     28 C29          8.7630     0.6070     0.1670 c6         1 3O4       0.148100
     29 C28          7.2960     0.8100    -0.3180 c6         1 3O4       0.155800
     30 H24         -8.5290     0.2080     0.3950 hn         1 3O4       0.149000
     31 H191       -10.4970    -2.6710    -0.2250 hc         1 3O4       0.065033
     32 H192       -10.2640    -1.3740     1.0210 hc         1 3O4       0.065033
     33 H193       -10.4440    -0.8990    -0.6080 hc         1 3O4       0.065033
     34 H26         -7.0490     1.8890     0.7160 ha         1 3O4       0.130500
     35 H90         -5.6310    -1.9990    -0.5500 ha         1 3O4       0.130500
     36 H13         -4.7490     2.7280     0.7200 ha         1 3O4       0.125000
     37 H17         -3.3460    -1.1720    -0.5650 ha         1 3O4       0.125000
     38 H11         -2.8540     3.5070    -0.0970 ha         1 3O4       0.133000
     39 H10         -0.4240     4.1450    -0.0790 h4         1 3O4       0.020100
     40 H2           2.3400    -1.9150     1.3520 ha         1 3O4       0.128000
     41 H6           2.4260     1.5910    -1.1680 ha         1 3O4       0.128000
     42 H3           4.8040    -2.0530     1.2360 ha         1 3O4       0.114000
     43 H5           4.8760     1.4560    -1.2820 ha         1 3O4       0.114000
     44 H281         7.3100     1.0600    -1.3890 h1         1 3O4       0.046200
     45 H282         6.8750     1.6760     0.2160 h1         1 3O4       0.046200
     46 H91C         6.5540    -2.5560    -0.1110 h1         1 3O4       0.046200
     47 H92C         7.0910    -1.7710    -1.6000 h1         1 3O4       0.046200
     48 H291         8.7880     0.5450     1.2650 h1         1 3O4       0.051950
     49 H292         9.3790     1.4640    -0.1390 h1         1 3O4       0.051950
     50 H311         8.6010    -1.8910     1.0830 h1         1 3O4       0.051950
     51 H312         9.0600    -2.6710    -0.4480 h1         1 3O4       0.051950
     52 H7           0.3860    -0.9970     0.4800 hn         1 3O4       0.508000
@<TRIPOS>BOND
     1     1     2 2   
     2     2     3 1   
     3     2     6 1   
     4     3     4 1   
     5     3    30 1   
     6     4     5 ar  
     7     4    22 ar  
     8     5    24 ar  
     9     5    34 1   
    10     6    31 1   
    11     6    32 1   
    12     6    33 1   
    13     7     8 ar  
    14     7    22 ar  
    15     7    37 1   
    16     8     9 1   
    17     8    24 ar  
    18     9    10 ar  
    19     9    14 ar  
    20    10    11 ar  
    21    10    38 1   
    22    11    12 ar  
    23    11    39 1   
    24    12    13 ar  
    25    13    14 ar  
    26    13    15 1   
    27    15    16 1   
    28    15    52 1   
    29    16    17 ar  
    30    16    21 ar  
    31    17    18 ar  
    32    17    40 1   
    33    18    19 ar  
    34    18    42 1   
    35    19    20 ar  
    36    19    23 1   
    37    20    21 ar  
    38    20    43 1   
    39    21    41 1   
    40    22    35 1   
    41    23    25 1   
    42    23    29 1   
    43    24    36 1   
    44    25    26 1   
    45    25    46 1   
    46    25    47 1   
    47    26    27 1   
    48    26    50 1   
    49    26    51 1   
    50    27    28 1   
    51    28    29 1   
    52    28    48 1   
    53    28    49 1   
    54    29    44 1   
    55    29    45 1   
@<TRIPOS>SUBSTRUCTURE
     1 3O4         1 TEMP              0 ****  ****    0 ROOT
