@<TRIPOS>MOLECULE
3O5
   32    32     1     0     0
SMALL
abcg2


@<TRIPOS>ATOM
      1 CAE         -0.0460     0.7860     0.1090 ca         1 3O5      -0.202000
      2 CAG         -1.4130     1.0250     0.1130 ca         1 3O5       0.032000
      3 CAO         -2.3010    -0.0340     0.0310 ca         1 3O5      -0.324500
      4 SAP         -4.0370     0.2540     0.0410 sy         1 3O5       1.133600
      5 OAC         -4.7030    -0.7840     0.8170 o          1 3O5      -0.548500
      6 OAD         -4.2640     1.6440     0.4140 o          1 3O5      -0.548500
      7 NAA         -4.4260    -0.0590    -1.5360 n8         1 3O5      -1.002100
      8 CAH         -1.8340    -1.3450    -0.0510 ca         1 3O5       0.032000
      9 CAF         -0.4790    -1.5860    -0.0530 ca         1 3O5      -0.202000
     10 CAN          0.4300    -0.5220     0.0240 ca         1 3O5       0.207100
     11 OAM          1.7230    -0.8540     0.0130 os         1 3O5      -0.343100
     12 CAL          2.7140     0.1680     0.0470 c3         1 3O5       0.164600
     13 CAK          4.0720    -0.4960    -0.0210 c3         1 3O5      -0.083400
     14 CAJ          5.1980     0.5300    -0.0050 c3         1 3O5      -0.078400
     15 CAI          6.5700    -0.1230    -0.0660 c3         1 3O5       0.150800
     16 NAB          7.6250     0.8800    -0.0530 n8         1 3O5      -0.995200
     17 H1           0.6250     1.6310     0.1720 ha         1 3O5       0.128500
     18 H2          -1.7680     2.0440     0.1820 ha         1 3O5       0.136500
     19 H3          -5.4250    -0.2100    -1.6470 hn         1 3O5       0.470500
     20 H4          -4.1120     0.6700    -2.1690 hn         1 3O5       0.470500
     21 H5          -2.5220    -2.1770    -0.1150 ha         1 3O5       0.136500
     22 H6          -0.1060    -2.6000    -0.1160 ha         1 3O5       0.128500
     23 H7           2.5780     0.8520    -0.7980 h1         1 3O5       0.040200
     24 H8           2.6220     0.7540     0.9680 h1         1 3O5       0.040200
     25 H9           4.1840    -1.1800     0.8250 hc         1 3O5       0.056700
     26 H10          4.1370    -1.1000    -0.9310 hc         1 3O5       0.056700
     27 H11          5.0910     1.2170    -0.8500 hc         1 3O5       0.048200
     28 H12          6.6500    -0.8550     0.7510 h1         1 3O5       0.029200
     29 H13          7.6270     1.3470     0.8460 hn         1 3O5       0.393500
     30 H14          8.5240     0.4210    -0.1200 hn         1 3O5       0.393500
     31 H15          5.1270     1.1400     0.9030 hc         1 3O5       0.048200
     32 H16          6.6500    -0.6940    -0.9950 h1         1 3O5       0.029200
@<TRIPOS>BOND
     1     1     2 ar  
     2     1    10 ar  
     3     1    17 1   
     4     2     3 ar  
     5     2    18 1   
     6     3     4 1   
     7     3     8 ar  
     8     4     5 2   
     9     4     6 2   
    10     4     7 1   
    11     7    19 1   
    12     7    20 1   
    13     8     9 ar  
    14     8    21 1   
    15     9    10 ar  
    16     9    22 1   
    17    10    11 1   
    18    11    12 1   
    19    12    13 1   
    20    12    23 1   
    21    12    24 1   
    22    13    14 1   
    23    13    25 1   
    24    13    26 1   
    25    14    15 1   
    26    14    27 1   
    27    14    31 1   
    28    15    16 1   
    29    15    28 1   
    30    15    32 1   
    31    16    29 1   
    32    16    30 1   
@<TRIPOS>SUBSTRUCTURE
     1 3O5         1 TEMP              0 ****  ****    0 ROOT
