@<TRIPOS>MOLECULE
3O5
   32    32     1     0     0
SMALL
No Charge or Current Charge


@<TRIPOS>ATOM
      1 CAE         -0.1540     0.7410     0.0390 ca         1 3O5      -0.202000
      2 CAG         -1.5440     0.9510     0.0610 ca         1 3O5       0.032000
      3 CAO         -2.4220    -0.1510     0.0530 ca         1 3O5      -0.324500
      4 SAP         -4.1930     0.1060     0.0820 sy         1 3O5       1.133600
      5 OAC         -4.8740    -1.0580     0.6480 o          1 3O5      -0.548500
      6 OAD         -4.4940     1.4780     0.4840 o          1 3O5      -0.548500
      7 NAA         -4.5500     0.0790    -1.5120 n8         1 3O5      -1.002100
      8 CAH         -1.9060    -1.4610     0.0230 ca         1 3O5       0.032000
      9 CAF         -0.5160    -1.6620     0.0010 ca         1 3O5      -0.202000
     10 CAN          0.3640    -0.5710     0.0080 ca         1 3O5       0.207100
     11 OAM          1.7180    -0.8360    -0.0140 os         1 3O5      -0.343100
     12 CAL          2.7030     0.2100    -0.0080 c3         1 3O5       0.164600
     13 CAK          4.0910    -0.4570    -0.0380 c3         1 3O5      -0.083400
     14 CAJ          5.2520     0.5630    -0.0350 c3         1 3O5      -0.078400
     15 CAI          6.6400    -0.1090    -0.0670 c3         1 3O5       0.150800
     16 NAB          7.7240     0.8900    -0.0670 n8         1 3O5      -0.995200
     17 H1           0.5010     1.6070     0.0460 ha         1 3O5       0.128500
     18 H2          -1.9280     1.9710     0.0870 ha         1 3O5       0.136500
     19 H3          -5.0580     0.9550    -1.6090 hn         1 3O5       0.470500
     20 H4          -3.6470     0.2720    -1.9360 hn         1 3O5       0.470500
     21 H5          -2.5730    -2.3220     0.0150 ha         1 3O5       0.136500
     22 H6          -0.1170    -2.6730    -0.0230 ha         1 3O5       0.128500
     23 H7           2.5880     0.8570    -0.8870 h1         1 3O5       0.040200
     24 H8           2.6110     0.8250     0.8980 h1         1 3O5       0.040200
     25 H9           4.1880    -1.1200     0.8310 hc         1 3O5       0.056700
     26 H10          4.1650    -1.0860    -0.9340 hc         1 3O5       0.056700
     27 H11          5.1510     1.2250    -0.9040 hc         1 3O5       0.048200
     28 H12          6.7590    -0.7590     0.8110 h1         1 3O5       0.029200
     29 H13          7.6970     1.4120     0.8170 hn         1 3O5       0.393500
     30 H14          8.6280     0.4030    -0.0300 hn         1 3O5       0.393500
     31 H15          5.1750     1.1920     0.8610 hc         1 3O5       0.048200
     32 H16          6.7310    -0.7270    -0.9720 h1         1 3O5       0.029200
@<TRIPOS>BOND
     1     1     2 ar  
     2     1    10 ar  
     3     1    17 1   
     4     2     3 ar  
     5     2    18 1   
     6     3     4 1   
     7     3     8 ar  
     8     4     5 2   
     9     4     6 2   
    10     4     7 1   
    11     7    19 1   
    12     7    20 1   
    13     8     9 ar  
    14     8    21 1   
    15     9    10 ar  
    16     9    22 1   
    17    10    11 1   
    18    11    12 1   
    19    12    13 1   
    20    12    23 1   
    21    12    24 1   
    22    13    14 1   
    23    13    25 1   
    24    13    26 1   
    25    14    15 1   
    26    14    27 1   
    27    14    31 1   
    28    15    16 1   
    29    15    28 1   
    30    15    32 1   
    31    16    29 1   
    32    16    30 1   
@<TRIPOS>SUBSTRUCTURE
     1 3O5         1 TEMP              0 ****  ****    0 ROOT
