@<TRIPOS>MOLECULE
3O6
   41    43     1     0     0
SMALL
No Charge or Current Charge


@<TRIPOS>ATOM
      1 C13         -0.5890     1.1100     0.0530 cc         1 3O6      -0.007400
      2 C15          1.8690     0.5900    -0.1600 c          1 3O6       0.663100
      3 C20          6.0200    -2.1820     0.1580 ca         1 3O6      -0.127500
      4 C21          6.8810    -1.1590    -0.2650 ca         1 3O6       0.155000
      5 C24          4.9910     0.3630    -0.4540 ca         1 3O6      -0.111000
      6 C01          0.2940     3.5110     0.4470 c3         1 3O6       0.067900
      7 N02         -0.7370     2.4990     0.1700 na         1 3O6       0.162800
      8 N03         -2.0460     2.9090     0.0910 nc         1 3O6      -0.455800
      9 C04         -2.7230     1.7790    -0.0420 cd         1 3O6       0.144300
     10 C05         -1.8750     0.6260    -0.0000 cd         1 3O6      -0.095000
     11 C06         -2.2680    -0.7900    -0.2040 ca         1 3O6      -0.021000
     12 C07         -3.4290    -1.3090     0.4090 ca         1 3O6      -0.069500
     13 C08         -3.8020    -2.6530     0.2250 ca         1 3O6      -0.150500
     14 C09         -3.0170    -3.4920    -0.5770 ca         1 3O6       0.177000
     15 F10         -3.3760    -4.7820    -0.7550 f          1 3O6      -0.177000
     16 C11         -1.8620    -2.9960    -1.1940 ca         1 3O6      -0.150500
     17 C12         -1.4870    -1.6530    -1.0080 ca         1 3O6      -0.069500
     18 N14          0.5510     0.3040     0.1390 ns         1 3O6      -0.433100
     19 O16          2.2350     1.6530    -0.6360 o          1 3O6      -0.593100
     20 N17          2.7070    -0.4830     0.1120 ns         1 3O6      -0.158000
     21 C18          4.1120    -0.6610    -0.0320 ca         1 3O6      -0.036000
     22 C19          4.6400    -1.9320     0.2740 ca         1 3O6      -0.111000
     23 C23          6.3710     0.1110    -0.5690 ca         1 3O6      -0.127500
     24 C25         -4.2360     1.8320    -0.2600 c3         1 3O6       0.294700
     25 F26         -4.9180     1.6410     0.8920 f          1 3O6      -0.106000
     26 F27         -4.6460     3.0250    -0.7540 f          1 3O6      -0.106000
     27 F28         -4.6640     0.8970    -1.1390 f          1 3O6      -0.106000
     28 H1           6.4210    -3.1640     0.3940 ha         1 3O6       0.136000
     29 H2           4.6310     1.3590    -0.6920 ha         1 3O6       0.130000
     30 H3           1.0250     3.1090     1.1580 h1         1 3O6       0.067367
     31 H4           0.7930     3.7910    -0.4870 h1         1 3O6       0.067367
     32 H5          -0.1690     4.4040     0.8850 h1         1 3O6       0.067367
     33 H6          -4.0310    -0.6860     1.0620 ha         1 3O6       0.119000
     34 H7          -4.6930    -3.0440     0.7080 ha         1 3O6       0.134000
     35 H8          -1.2610    -3.6490    -1.8220 ha         1 3O6       0.134000
     36 H9          -0.6100    -1.2810    -1.5290 ha         1 3O6       0.119000
     37 H10          0.3980    -0.6620     0.4000 hn         1 3O6       0.332500
     38 H11          2.2360    -1.2930     0.4900 hn         1 3O6       0.150000
     39 H12          3.9800    -2.7320     0.6030 ha         1 3O6       0.130000
     40 H13          7.0450     0.9000    -0.8940 ha         1 3O6       0.136000
     41 F22          8.2060    -1.3980    -0.3770 f          1 3O6      -0.176000
@<TRIPOS>BOND
     1     1     7 1   
     2     1    10 2   
     3     1    18 1   
     4     2    18 1   
     5     2    19 2   
     6     2    20 1   
     7     3     4 ar  
     8     3    22 ar  
     9     3    28 1   
    10     4    23 ar  
    11     4    41 1   
    12     5    21 ar  
    13     5    23 ar  
    14     5    29 1   
    15     6     7 1   
    16     6    30 1   
    17     6    31 1   
    18     6    32 1   
    19     7     8 1   
    20     8     9 2   
    21     9    10 1   
    22     9    24 1   
    23    10    11 1   
    24    11    12 ar  
    25    11    17 ar  
    26    12    13 ar  
    27    12    33 1   
    28    13    14 ar  
    29    13    34 1   
    30    14    15 1   
    31    14    16 ar  
    32    16    17 ar  
    33    16    35 1   
    34    17    36 1   
    35    18    37 1   
    36    20    21 1   
    37    20    38 1   
    38    21    22 ar  
    39    22    39 1   
    40    23    40 1   
    41    24    25 1   
    42    24    26 1   
    43    24    27 1   
@<TRIPOS>SUBSTRUCTURE
     1 3O6         1 TEMP              0 ****  ****    0 ROOT
