@<TRIPOS>MOLECULE
3O6
   41    43     1     0     0
SMALL
abcg2


@<TRIPOS>ATOM
      1 C13         -0.5840     1.0430    -0.7980 cc         1 3O6      -0.007400
      2 C15          1.6500     0.2890    -0.3610 c          1 3O6       0.663100
      3 C20          6.2590    -1.1170    -0.6420 ca         1 3O6      -0.127500
      4 C21          6.4640    -1.0630     0.7220 ca         1 3O6       0.155000
      5 C24          4.1410    -0.6520     1.1070 ca         1 3O6      -0.111000
      6 C01          0.3980     3.2990    -1.2950 c3         1 3O6       0.067900
      7 N02         -0.6480     2.3910    -0.8810 na         1 3O6       0.162800
      8 N03         -1.8080     2.8580    -0.4700 nc         1 3O6      -0.455800
      9 C04         -2.5170     1.7980    -0.1320 cd         1 3O6       0.144300
     10 C05         -1.7990     0.6030    -0.3080 cd         1 3O6      -0.095000
     11 C06         -2.1790    -0.7880    -0.0420 ca         1 3O6      -0.021000
     12 C07         -2.6380    -1.1790     1.2150 ca         1 3O6      -0.069500
     13 C08         -2.9730    -2.4980     1.4760 ca         1 3O6      -0.150500
     14 C09         -2.8370    -3.4280     0.4630 ca         1 3O6       0.177000
     15 F10         -3.1550    -4.7080     0.7100 f          1 3O6      -0.177000
     16 C11         -2.3830    -3.0810    -0.7940 ca         1 3O6      -0.150500
     17 C12         -2.0590    -1.7560    -1.0390 ca         1 3O6      -0.069500
     18 N14          0.5400     0.3270    -1.1730 ns         1 3O6      -0.433100
     19 O16          1.7130     0.9360     0.6670 o          1 3O6      -0.593100
     20 N17          2.6360    -0.5230    -0.8330 ns         1 3O6      -0.158000
     21 C18          3.9090    -0.6790    -0.2680 ca         1 3O6      -0.036000
     22 C19          4.9780    -0.9160    -1.1310 ca         1 3O6      -0.111000
     23 C23          5.4250    -0.8360     1.6010 ca         1 3O6      -0.127500
     24 C25         -3.9070     1.9710     0.3620 c3         1 3O6       0.294700
     25 F26         -3.9870     1.8650     1.6990 f          1 3O6      -0.106000
     26 F27         -4.4000     3.1670     0.0390 f          1 3O6      -0.106000
     27 F28         -4.7250     1.0420    -0.1430 f          1 3O6      -0.106000
     28 H1           7.0820    -1.3010    -1.3190 ha         1 3O6       0.136000
     29 H2           3.3330    -0.5010     1.8040 ha         1 3O6       0.130000
     30 H3           0.9320     3.6870    -0.4300 h1         1 3O6       0.067367
     31 H4           1.0960     2.7750    -1.9410 h1         1 3O6       0.067367
     32 H5          -0.0490     4.1200    -1.8470 h1         1 3O6       0.067367
     33 H6          -2.7170    -0.4530     2.0130 ha         1 3O6       0.119000
     34 H7          -3.3240    -2.7980     2.4540 ha         1 3O6       0.134000
     35 H8          -2.2910    -3.8280    -1.5710 ha         1 3O6       0.134000
     36 H9          -1.7270    -1.4730    -2.0300 ha         1 3O6       0.119000
     37 H10          0.4730    -0.2790    -1.9770 hn         1 3O6       0.332500
     38 H11          2.5230    -0.9040    -1.7600 hn         1 3O6       0.150000
     39 H12          4.8130    -0.9430    -2.2010 ha         1 3O6       0.130000
     40 H13          5.6030    -0.8130     2.6680 ha         1 3O6       0.136000
     41 F22          7.7050    -1.2430     1.2060 f          1 3O6      -0.176000
@<TRIPOS>BOND
     1     1     7 1   
     2     1    10 2   
     3     1    18 1   
     4     2    18 1   
     5     2    19 2   
     6     2    20 1   
     7     3     4 ar  
     8     3    22 ar  
     9     3    28 1   
    10     4    23 ar  
    11     4    41 1   
    12     5    21 ar  
    13     5    23 ar  
    14     5    29 1   
    15     6     7 1   
    16     6    30 1   
    17     6    31 1   
    18     6    32 1   
    19     7     8 1   
    20     8     9 2   
    21     9    10 1   
    22     9    24 1   
    23    10    11 1   
    24    11    12 ar  
    25    11    17 ar  
    26    12    13 ar  
    27    12    33 1   
    28    13    14 ar  
    29    13    34 1   
    30    14    15 1   
    31    14    16 ar  
    32    16    17 ar  
    33    16    35 1   
    34    17    36 1   
    35    18    37 1   
    36    20    21 1   
    37    20    38 1   
    38    21    22 ar  
    39    22    39 1   
    40    23    40 1   
    41    24    25 1   
    42    24    26 1   
    43    24    27 1   
@<TRIPOS>SUBSTRUCTURE
     1 3O6         1 TEMP              0 ****  ****    0 ROOT
