@<TRIPOS>MOLECULE
3O7
   28    30     1     0     0
SMALL
abcg2


@<TRIPOS>ATOM
      1 O2          -2.6760    -2.6930    -0.1280 oh         1 3O7      -0.527600
      2 CAY         -2.5620    -1.3700    -0.1250 ca         1 3O7       0.179850
      3 CAI         -3.7510    -0.6150    -0.1020 ca         1 3O7      -0.112000
      4 CBE         -1.3360    -0.7010    -0.1420 ca         1 3O7      -0.199100
      5 CAJ         -3.7200     0.7510    -0.0980 ca         1 3O7      -0.112000
      6 CBA         -0.0980    -1.4820    -0.1630 c          1 3O7       0.621800
      7 OAA         -0.1570    -2.7130    -0.1680 o          1 3O7      -0.587100
      8 CBF         -1.3070     0.7160    -0.1390 ca         1 3O7      -0.199100
      9 CBC          1.1880    -0.7740    -0.1790 ca         1 3O7      -0.199100
     10 CAZ         -2.4980     1.4470    -0.1160 ca         1 3O7       0.179850
     11 CBB         -0.0350     1.4090    -0.1620 c          1 3O7       0.621800
     12 OAB         -0.0050     2.6570    -0.1620 o          1 3O7      -0.587100
     13 CAW          2.3960    -1.4720    -0.1920 ca         1 3O7       0.179850
     14 O1          -2.5530     2.7740    -0.1100 oh         1 3O7      -0.527600
     15 OAE          2.4240    -2.8060    -0.1830 oh         1 3O7      -0.527600
     16 CAG          3.6030    -0.7490    -0.2130 ca         1 3O7      -0.112000
     17 CAH          3.6210     0.6170    -0.2180 ca         1 3O7      -0.112000
     18 CAX          2.4220     1.3460    -0.2030 ca         1 3O7       0.179850
     19 OAF          2.5170     2.6700    -0.2070 oh         1 3O7      -0.527600
     20 CBD          1.2070     0.6490    -0.1830 ca         1 3O7      -0.199100
     21 H1          -1.7570    -3.0550    -0.1430 ho         1 3O7       0.506250
     22 H2          -4.6990    -1.1370    -0.0890 ha         1 3O7       0.135250
     23 H3          -4.6430     1.3160    -0.0800 ha         1 3O7       0.135250
     24 H6          -1.6310     3.1150    -0.1240 ho         1 3O7       0.506250
     25 H7           3.3380    -3.1160    -0.1800 ho         1 3O7       0.506250
     26 H8           4.5430    -1.2900    -0.2250 ha         1 3O7       0.135250
     27 H9           4.5620     1.1500    -0.2340 ha         1 3O7       0.135250
     28 H10          1.6030     3.0350    -0.1940 ho         1 3O7       0.506250
@<TRIPOS>BOND
     1     1     2 1   
     2     1    21 1   
     3     2     3 ar  
     4     2     4 ar  
     5     3     5 ar  
     6     3    22 1   
     7     4     6 1   
     8     4     8 ar  
     9     5    10 ar  
    10     5    23 1   
    11     6     7 2   
    12     6     9 1   
    13     8    10 ar  
    14     8    11 1   
    15     9    13 ar  
    16     9    20 ar  
    17    10    14 1   
    18    11    12 2   
    19    11    20 1   
    20    13    15 1   
    21    13    16 ar  
    22    14    24 1   
    23    15    25 1   
    24    16    17 ar  
    25    16    26 1   
    26    17    18 ar  
    27    17    27 1   
    28    18    19 1   
    29    18    20 ar  
    30    19    28 1   
@<TRIPOS>SUBSTRUCTURE
     1 3O7         1 TEMP              0 ****  ****    0 ROOT
