@<TRIPOS>MOLECULE
3O7
   28    30     1     0     0
SMALL
No Charge or Current Charge


@<TRIPOS>ATOM
      1 O2          -2.7480    -2.7200    -0.1170 oh         1 3O7      -0.527600
      2 CAY         -2.6520    -1.3610    -0.1100 ca         1 3O7       0.179850
      3 CAI         -3.8420    -0.6260    -0.0380 ca         1 3O7      -0.112000
      4 CBE         -1.3920    -0.7040    -0.1720 ca         1 3O7      -0.199100
      5 CAJ         -3.8060     0.7720    -0.0310 ca         1 3O7      -0.112000
      6 CBA         -0.1070    -1.5090    -0.2530 c          1 3O7       0.621800
      7 OAA         -0.1790    -2.7300    -0.3670 o          1 3O7      -0.587100
      8 CBF         -1.3590     0.7200    -0.1640 ca         1 3O7      -0.199100
      9 CBC          1.2280    -0.7720    -0.2140 ca         1 3O7      -0.199100
     10 CAZ         -2.5800     1.4440    -0.0950 ca         1 3O7       0.179850
     11 CBB         -0.0390     1.4520    -0.2280 c          1 3O7       0.621800
     12 OAB         -0.0150     2.6810    -0.2840 o          1 3O7      -0.587100
     13 CAW          2.4680    -1.4750    -0.1790 ca         1 3O7       0.179850
     14 O1          -2.6030     2.8070    -0.0890 oh         1 3O7      -0.527600
     15 OAE          2.5300    -2.8390    -0.1520 oh         1 3O7      -0.527600
     16 CAG          3.6850    -0.7750    -0.1600 ca         1 3O7      -0.112000
     17 CAH          3.6990     0.6220    -0.1740 ca         1 3O7      -0.112000
     18 CAX          2.4990     1.3370    -0.1990 ca         1 3O7       0.179850
     19 OAF          2.5760     2.6980    -0.2060 oh         1 3O7      -0.527600
     20 CBD          1.2500     0.6590    -0.2150 ca         1 3O7      -0.199100
     21 H1          -1.8190    -3.0590    -0.2140 ho         1 3O7       0.506250
     22 H2          -4.7960    -1.1450     0.0100 ha         1 3O7       0.135250
     23 H3          -4.7320     1.3380     0.0220 ha         1 3O7       0.135250
     24 H6          -1.6600     3.1030    -0.1630 ho         1 3O7       0.506250
     25 H7           3.4710    -3.1160    -0.1330 ho         1 3O7       0.506250
     26 H8           4.6310    -1.3110    -0.1340 ha         1 3O7       0.135250
     27 H9           4.6460     1.1560    -0.1600 ha         1 3O7       0.135250
     28 H10          1.6420     3.0310    -0.2420 ho         1 3O7       0.506250
@<TRIPOS>BOND
     1     1     2 1   
     2     1    21 1   
     3     2     3 ar  
     4     2     4 ar  
     5     3     5 ar  
     6     3    22 1   
     7     4     6 1   
     8     4     8 ar  
     9     5    10 ar  
    10     5    23 1   
    11     6     7 2   
    12     6     9 1   
    13     8    10 ar  
    14     8    11 1   
    15     9    13 ar  
    16     9    20 ar  
    17    10    14 1   
    18    11    12 2   
    19    11    20 1   
    20    13    15 1   
    21    13    16 ar  
    22    14    24 1   
    23    15    25 1   
    24    16    17 ar  
    25    16    26 1   
    26    17    18 ar  
    27    17    27 1   
    28    18    19 1   
    29    18    20 ar  
    30    19    28 1   
@<TRIPOS>SUBSTRUCTURE
     1 3O7         1 TEMP              0 ****  ****    0 ROOT
