@<TRIPOS>MOLECULE
3O8
   45    47     1     0     0
SMALL
No Charge or Current Charge


@<TRIPOS>ATOM
      1 OAC          8.5210    -0.0120    -0.4850 oh         1 3O8      -0.642000
      2 CAK          7.9750     0.9320     0.4540 c3         1 3O8       0.164600
      3 CAM          6.5150     1.3340     0.0860 c3         1 3O8       0.159800
      4 NAS          5.5630     0.1960     0.1810 n7         1 3O8      -0.848400
      5 CAO          4.1490     0.5300    -0.1210 c3         1 3O8       0.143800
      6 CAQ          3.2280    -0.7200    -0.0710 c3         1 3O8       0.226800
      7 NAU          1.8230    -0.3680    -0.3560 nu         1 3O8      -0.806200
      8 CAY          0.7050    -1.2030    -0.2840 ca         1 3O8       0.374000
      9 CAI          0.9000    -2.5900    -0.3840 ca         1 3O8      -0.122000
     10 CBE         -0.6140    -0.6830    -0.1310 ca         1 3O8      -0.211600
     11 CAJ         -0.1840    -3.4700    -0.3330 ca         1 3O8      -0.129000
     12 CBA         -0.8540     0.8160    -0.0400 c          1 3O8       0.625300
     13 OAA          0.0660     1.6250     0.0760 o          1 3O8      -0.645100
     14 CBF         -1.7250    -1.5900    -0.0720 ca         1 3O8      -0.207600
     15 CBC         -2.2760     1.3320    -0.0810 ca         1 3O8      -0.207600
     16 CAZ         -1.4880    -2.9880    -0.1800 ca         1 3O8       0.370000
     17 CBB         -3.1380    -1.0580     0.1030 c          1 3O8       0.625300
     18 OAB         -4.0910    -1.7930     0.3540 o          1 3O8      -0.640100
     19 CAW         -2.5330     2.7260    -0.1780 ca         1 3O8       0.176100
     20 NAV         -2.4890    -3.9210    -0.1580 nv         1 3O8      -0.794000
     21 OAE         -1.5130     3.6270    -0.2340 oh         1 3O8      -0.554100
     22 CAG         -3.8450     3.2140    -0.2170 ca         1 3O8      -0.106000
     23 CAH         -4.9250     2.3270    -0.1490 ca         1 3O8      -0.105000
     24 CAX         -4.6960     0.9490    -0.0430 ca         1 3O8       0.177100
     25 OAF         -5.7770     0.1250     0.0320 oh         1 3O8      -0.554100
     26 CBD         -3.3740     0.4310    -0.0130 ca         1 3O8      -0.210600
     27 H1           9.4120    -0.2590    -0.1540 ho         1 3O8       0.438000
     28 H2           7.9870     0.5110     1.4680 h1         1 3O8       0.016200
     29 H3           8.5930     1.8400     0.4680 h1         1 3O8       0.016200
     30 H4           6.2050     2.1370     0.7690 h1         1 3O8       0.040200
     31 H5           6.5110     1.7540    -0.9290 h1         1 3O8       0.040200
     32 H6           5.6140    -0.1850     1.1340 hn         1 3O8       0.404000
     33 H8           3.7730     1.2710     0.5970 h1         1 3O8       0.040700
     34 H9           4.0730     0.9750    -1.1230 h1         1 3O8       0.040700
     35 H10          3.5870    -1.4550    -0.8040 h1         1 3O8       0.047700
     36 H11          1.8960    -3.0000    -0.5140 ha         1 3O8       0.122000
     37 H12         -0.0070    -4.5390    -0.4200 ha         1 3O8       0.115000
     38 H15         -3.4300    -3.6070     0.0720 hn         1 3O8       0.347500
     39 H16         -2.2690    -4.9080    -0.0920 hn         1 3O8       0.347500
     40 H17         -0.6810     3.0910    -0.1230 ho         1 3O8       0.518000
     41 H18         -4.0240     4.2830    -0.2940 ha         1 3O8       0.135000
     42 H19         -5.9430     2.7070    -0.1740 ha         1 3O8       0.135000
     43 H20         -5.4040    -0.7870     0.1790 ho         1 3O8       0.519000
     44 H7           3.2980    -1.1740     0.9270 h1         1 3O8       0.047700
     45 H21          1.5840     0.6220    -0.2670 hn         1 3O8       0.374000
@<TRIPOS>BOND
     1     1     2 1   
     2     1    27 1   
     3     2     3 1   
     4     2    28 1   
     5     2    29 1   
     6     3     4 1   
     7     3    30 1   
     8     3    31 1   
     9     4     5 1   
    10     4    32 1   
    11     5     6 1   
    12     5    33 1   
    13     5    34 1   
    14     6     7 1   
    15     6    35 1   
    16     6    44 1   
    17     7     8 1   
    18     7    45 1   
    19     8     9 ar  
    20     8    10 ar  
    21     9    11 ar  
    22     9    36 1   
    23    10    12 1   
    24    10    14 ar  
    25    11    16 ar  
    26    11    37 1   
    27    12    13 2   
    28    12    15 1   
    29    14    16 ar  
    30    14    17 1   
    31    15    19 ar  
    32    15    26 ar  
    33    16    20 1   
    34    17    18 2   
    35    17    26 1   
    36    19    21 1   
    37    19    22 ar  
    38    20    38 1   
    39    20    39 1   
    40    21    40 1   
    41    22    23 ar  
    42    22    41 1   
    43    23    24 ar  
    44    23    42 1   
    45    24    25 1   
    46    24    26 ar  
    47    25    43 1   
@<TRIPOS>SUBSTRUCTURE
     1 3O8         1 TEMP              0 ****  ****    0 ROOT
