@<TRIPOS>MOLECULE
3O8
   45    47     1     0     0
SMALL
bcc


@<TRIPOS>ATOM
      1 OAC          8.1860    -0.0360    -0.8910 oh         1 3O8      -0.579800
      2 CAK          7.8720     0.6990     0.2700 c3         1 3O8       0.141400
      3 CAM          6.4490     1.2080     0.1860 c3         1 3O8       0.159800
      4 NAS          5.4850     0.1260     0.1540 n7         1 3O8      -0.793200
      5 CAO          4.1150     0.5850     0.1070 c3         1 3O8       0.143800
      6 CAQ          3.1860    -0.6100    -0.0290 c3         1 3O8       0.226800
      7 NAU          1.8100    -0.1710    -0.0470 nu         1 3O8      -0.772600
      8 CAY          0.7460    -0.9890    -0.0670 ca         1 3O8       0.235600
      9 CAI          0.9720    -2.4000    -0.0620 ca         1 3O8      -0.140000
     10 CBE         -0.5950    -0.5440    -0.0930 ca         1 3O8      -0.211600
     11 CAJ         -0.0460    -3.2870    -0.0670 ca         1 3O8      -0.147000
     12 CBA         -0.8830     0.8670    -0.1160 c          1 3O8       0.625300
     13 OAA          0.0300     1.7280    -0.1130 o          1 3O8      -0.645100
     14 CBF         -1.6790    -1.4970    -0.0970 ca         1 3O8      -0.207600
     15 CBC         -2.2700     1.3250    -0.1440 ca         1 3O8      -0.207600
     16 CAZ         -1.4110    -2.8780    -0.0810 ca         1 3O8       0.231600
     17 CBB         -3.0470    -1.0420    -0.1170 c          1 3O8       0.625300
     18 OAB         -4.0080    -1.8440    -0.1140 o          1 3O8      -0.640100
     19 CAW         -2.5480     2.6970    -0.1720 ca         1 3O8       0.176100
     20 NAV         -2.3360    -3.8490    -0.0860 nv         1 3O8      -0.865200
     21 OAE         -1.5990     3.6350    -0.1750 oh         1 3O8      -0.515100
     22 CAG         -3.8840     3.1190    -0.1980 ca         1 3O8      -0.124000
     23 CAH         -4.9130     2.2110    -0.1960 ca         1 3O8      -0.123000
     24 CAX         -4.6580     0.8330    -0.1680 ca         1 3O8       0.177100
     25 OAF         -5.7020     0.0050    -0.1680 oh         1 3O8      -0.515100
     26 CBD         -3.3300     0.3910    -0.1430 ca         1 3O8      -0.210600
     27 H1           9.0870    -0.3580    -0.8030 ho         1 3O8       0.399000
     28 H2           7.9820     0.0880     1.1770 h1         1 3O8       0.016200
     29 H3           8.5340     1.5660     0.3940 h1         1 3O8       0.016200
     30 H4           6.2960     1.8950     1.0320 h1         1 3O8       0.040200
     31 H5           6.3310     1.8100    -0.7210 h1         1 3O8       0.040200
     32 H6           5.6090    -0.4450     0.9830 hn         1 3O8       0.348800
     33 H8           3.8220     1.1770     0.9890 h1         1 3O8       0.040700
     34 H9           3.9970     1.2390    -0.7620 h1         1 3O8       0.040700
     35 H10          3.4380    -1.1550    -0.9450 h1         1 3O8       0.047700
     36 H11          1.9840    -2.7790    -0.0530 ha         1 3O8       0.140000
     37 H12          0.1740    -4.3480    -0.0620 ha         1 3O8       0.133000
     38 H15         -3.3150    -3.6220    -0.0740 hn         1 3O8       0.452300
     39 H16         -2.0510    -4.8120    -0.0500 hn         1 3O8       0.452300
     40 H17         -0.7350     3.1520    -0.1550 ho         1 3O8       0.479000
     41 H18         -4.0970     4.1810    -0.2200 ha         1 3O8       0.153000
     42 H19         -5.9400     2.5550    -0.2170 ha         1 3O8       0.153000
     43 H20         -5.3260    -0.9110    -0.1470 ho         1 3O8       0.480000
     44 H7           3.3560    -1.2920     0.8100 h1         1 3O8       0.047700
     45 H21          1.6090     0.8190    -0.0730 hn         1 3O8       0.478800
@<TRIPOS>BOND
     1     1     2 1   
     2     1    27 1   
     3     2     3 1   
     4     2    28 1   
     5     2    29 1   
     6     3     4 1   
     7     3    30 1   
     8     3    31 1   
     9     4     5 1   
    10     4    32 1   
    11     5     6 1   
    12     5    33 1   
    13     5    34 1   
    14     6     7 1   
    15     6    35 1   
    16     6    44 1   
    17     7     8 1   
    18     7    45 1   
    19     8     9 ar  
    20     8    10 ar  
    21     9    11 ar  
    22     9    36 1   
    23    10    12 1   
    24    10    14 ar  
    25    11    16 ar  
    26    11    37 1   
    27    12    13 2   
    28    12    15 1   
    29    14    16 ar  
    30    14    17 1   
    31    15    19 ar  
    32    15    26 ar  
    33    16    20 1   
    34    17    18 2   
    35    17    26 1   
    36    19    21 1   
    37    19    22 ar  
    38    20    38 1   
    39    20    39 1   
    40    21    40 1   
    41    22    23 ar  
    42    22    41 1   
    43    23    24 ar  
    44    23    42 1   
    45    24    25 1   
    46    24    26 ar  
    47    25    43 1   
@<TRIPOS>SUBSTRUCTURE
     1 3O8         1 TEMP              0 ****  ****    0 ROOT
