@<TRIPOS>MOLECULE
3OA
   58    60     1     0     0
SMALL
abcg2


@<TRIPOS>ATOM
      1 OAC          7.5080    -0.4250     1.5940 oh         1 3OA      -0.710000
      2 CAK          7.2370     0.0200     0.2850 c3         1 3OA       0.162600
      3 CAM          6.7520    -1.1340    -0.5530 c3         1 3OA       0.162100
      4 O1           5.5090    -1.5850    -0.0710 os         1 3OA      -0.447000
      5 CAO          4.9210    -2.5690    -0.8810 c3         1 3OA       0.145600
      6 CAQ          3.5300    -2.8580    -0.3620 c3         1 3OA       0.231800
      7 NAU          2.7500    -1.6430    -0.3690 nu         1 3OA      -0.798200
      8 CAY          1.4270    -1.5640    -0.1540 ca         1 3OA       0.370000
      9 CAI          0.6800    -2.7680     0.0110 ca         1 3OA      -0.126000
     10 CAJ         -0.6580    -2.7650     0.2100 ca         1 3OA      -0.126000
     11 CBE          0.7160    -0.3450    -0.0900 ca         1 3OA      -0.210100
     12 CBA          1.4250     0.9030    -0.2260 c          1 3OA       0.622300
     13 OAA          2.6680     0.9420    -0.3930 o          1 3OA      -0.638100
     14 CBC          0.6940     2.1650    -0.1690 ca         1 3OA      -0.207100
     15 CAW          1.3870     3.3750    -0.2990 ca         1 3OA       0.175100
     16 OAE          2.7060     3.4460    -0.4750 oh         1 3OA      -0.557100
     17 CAG          0.6670     4.5770    -0.2440 ca         1 3OA      -0.107000
     18 CAH         -0.6940     4.5780    -0.0670 ca         1 3OA      -0.107000
     19 CAX         -1.4070     3.3790     0.0620 ca         1 3OA       0.175100
     20 OAF         -2.7270     3.4520     0.2310 oh         1 3OA      -0.557100
     21 CBD         -0.7060     2.1660     0.0120 ca         1 3OA      -0.207100
     22 CBB         -1.4300     0.9070     0.1530 c          1 3OA       0.622300
     23 OAB         -2.6740     0.9490     0.3080 o          1 3OA      -0.638100
     24 CBF         -0.7110    -0.3420     0.1130 ca         1 3OA      -0.210100
     25 CAZ         -1.4140    -1.5580     0.2700 ca         1 3OA       0.370000
     26 NAV         -2.7380    -1.6290     0.4810 nu         1 3OA      -0.798200
     27 CAR         -3.5130    -2.8440     0.5640 c3         1 3OA       0.231800
     28 CAP         -4.9130    -2.5170     1.0360 c3         1 3OA       0.145600
     29 O2          -5.4870    -1.6030     0.1370 os         1 3OA      -0.447000
     30 CAN         -6.7300    -1.1020     0.5650 c3         1 3OA       0.162100
     31 CAL         -7.1950    -0.0230    -0.3790 c3         1 3OA       0.162600
     32 OAD         -7.4540    -0.5820    -1.6450 oh         1 3OA      -0.710000
     33 H1           7.8060     0.3290     2.1100 ho         1 3OA       0.503000
     34 H2           6.4820     0.8170     0.2730 h1         1 3OA       0.028700
     35 H3           8.1330     0.4230    -0.2050 h1         1 3OA       0.028700
     36 H4           6.6660    -0.7890    -1.5920 h1         1 3OA       0.029700
     37 H5           7.4920    -1.9460    -0.5450 h1         1 3OA       0.029700
     38 H6           4.8610    -2.2300    -1.9250 h1         1 3OA       0.032450
     39 H7           5.5040    -3.4990    -0.8760 h1         1 3OA       0.032450
     40 H8           3.0860    -3.6140    -1.0140 h1         1 3OA       0.047200
     41 H9           3.5870    -3.2920     0.6430 h1         1 3OA       0.047200
     42 H10          3.2450    -0.7610    -0.3840 hn         1 3OA       0.384000
     43 H11          1.1890    -3.7220    -0.0190 ha         1 3OA       0.116000
     44 H12         -1.1570    -3.7170     0.3270 ha         1 3OA       0.116000
     45 H14          3.0310     2.5110    -0.4910 ho         1 3OA       0.519000
     46 H15          1.2010     5.5130    -0.3470 ha         1 3OA       0.133000
     47 H16         -1.2330     5.5160    -0.0250 ha         1 3OA       0.133000
     48 H17         -3.0450     2.5170     0.3040 ho         1 3OA       0.519000
     49 H19         -3.2380    -0.7510     0.4140 hn         1 3OA       0.384000
     50 H20         -3.5520    -3.3600    -0.4020 h1         1 3OA       0.047200
     51 H21         -3.0760    -3.5400     1.2840 h1         1 3OA       0.047200
     52 H22         -5.4950    -3.4460     1.0960 h1         1 3OA       0.032450
     53 H23         -4.8700    -2.0940     2.0490 h1         1 3OA       0.032450
     54 H24         -7.4790    -1.9050     0.6200 h1         1 3OA       0.029700
     55 H25         -6.6520    -0.6680     1.5710 h1         1 3OA       0.029700
     56 H26         -8.0920     0.4320     0.0610 h1         1 3OA       0.028700
     57 H27         -6.4310     0.7640    -0.4280 h1         1 3OA       0.028700
     58 H28         -7.7180     0.1280    -2.2360 ho         1 3OA       0.503000
@<TRIPOS>BOND
     1     1     2 1   
     2     1    33 1   
     3     2     3 1   
     4     2    34 1   
     5     2    35 1   
     6     3     4 1   
     7     3    36 1   
     8     3    37 1   
     9     4     5 1   
    10     5     6 1   
    11     5    38 1   
    12     5    39 1   
    13     6     7 1   
    14     6    40 1   
    15     6    41 1   
    16     7     8 1   
    17     7    42 1   
    18     8     9 ar  
    19     8    11 ar  
    20     9    10 ar  
    21     9    43 1   
    22    10    25 ar  
    23    10    44 1   
    24    11    12 1   
    25    11    24 ar  
    26    12    13 2   
    27    12    14 1   
    28    14    15 ar  
    29    14    21 ar  
    30    15    16 1   
    31    15    17 ar  
    32    16    45 1   
    33    17    18 ar  
    34    17    46 1   
    35    18    19 ar  
    36    18    47 1   
    37    19    20 1   
    38    19    21 ar  
    39    20    48 1   
    40    21    22 1   
    41    22    23 2   
    42    22    24 1   
    43    24    25 ar  
    44    25    26 1   
    45    26    27 1   
    46    26    49 1   
    47    27    28 1   
    48    27    50 1   
    49    27    51 1   
    50    28    29 1   
    51    28    52 1   
    52    28    53 1   
    53    29    30 1   
    54    30    31 1   
    55    30    54 1   
    56    30    55 1   
    57    31    32 1   
    58    31    56 1   
    59    31    57 1   
    60    32    58 1   
@<TRIPOS>SUBSTRUCTURE
     1 3OA         1 TEMP              0 ****  ****    0 ROOT
