@<TRIPOS>MOLECULE
3OA
   58    60     1     0     0
SMALL
No Charge or Current Charge


@<TRIPOS>ATOM
      1 OAC          7.2160     0.5540     1.3800 oh         1 3OA      -0.710000
      2 CAK          7.0670     0.5350    -0.0540 c3         1 3OA       0.162600
      3 CAM          6.7970    -0.8990    -0.5850 c3         1 3OA       0.162100
      4 O1           5.4820    -1.3190    -0.1710 os         1 3OA      -0.447000
      5 CAO          5.1160    -2.6490    -0.5950 c3         1 3OA       0.145600
      6 CAQ          3.6700    -2.9510    -0.1240 c3         1 3OA       0.231800
      7 NAU          2.7040    -1.9830    -0.6810 nu         1 3OA      -0.798200
      8 CAY          1.3510    -1.8810    -0.3570 ca         1 3OA       0.370000
      9 CAI          0.6430    -3.0630    -0.0980 ca         1 3OA      -0.126000
     10 CAJ         -0.7090    -3.0260     0.2490 ca         1 3OA      -0.126000
     11 CBE          0.6840    -0.6260    -0.2770 ca         1 3OA      -0.210100
     12 CBA          1.4310     0.6640    -0.5700 c          1 3OA       0.622300
     13 OAA          2.5390     0.6770    -1.1010 o          1 3OA      -0.638100
     14 CBC          0.7730     1.9800    -0.2240 ca         1 3OA      -0.207100
     15 CAW          1.5120     3.1910    -0.2850 ca         1 3OA       0.175100
     16 OAE          2.8220     3.1960    -0.6570 oh         1 3OA      -0.557100
     17 CAG          0.9120     4.4150     0.0330 ca         1 3OA      -0.107000
     18 CAH         -0.4360     4.4580     0.4060 ca         1 3OA      -0.107000
     19 CAX         -1.1870     3.2780     0.4620 ca         1 3OA       0.175100
     20 OAF         -2.4990     3.3680     0.8170 oh         1 3OA      -0.557100
     21 CBD         -0.5960     2.0240     0.1550 ca         1 3OA      -0.207100
     22 CBB         -1.4150     0.7530     0.2180 c          1 3OA       0.622300
     23 OAB         -2.6320     0.8410     0.3640 o          1 3OA      -0.638100
     24 CBF         -0.7030    -0.5850     0.0920 ca         1 3OA      -0.210100
     25 CAZ         -1.3950    -1.8050     0.3470 ca         1 3OA       0.370000
     26 NAV         -2.7420    -1.8280     0.7130 nu         1 3OA      -0.798200
     27 CAR         -3.6990    -2.9400     0.5390 c3         1 3OA       0.231800
     28 CAP         -5.1330    -2.5330     0.9640 c3         1 3OA       0.145600
     29 O2          -5.5670    -1.4180     0.1580 os         1 3OA      -0.447000
     30 CAN         -6.8780    -0.9150     0.4860 c3         1 3OA       0.162100
     31 CAL         -7.2230     0.2680    -0.4590 c3         1 3OA       0.162600
     32 OAD         -7.4380    -0.1770    -1.8130 oh         1 3OA      -0.710000
     33 H1           7.3190     1.4980     1.6440 ho         1 3OA       0.503000
     34 H2           6.2420     1.1900    -0.3650 h1         1 3OA       0.028700
     35 H3           7.9820     0.9130    -0.5300 h1         1 3OA       0.028700
     36 H4           6.8660    -0.8900    -1.6810 h1         1 3OA       0.029700
     37 H5           7.5670    -1.5830    -0.2020 h1         1 3OA       0.029700
     38 H6           5.1630    -2.7340    -1.6890 h1         1 3OA       0.032450
     39 H7           5.7970    -3.3940    -0.1630 h1         1 3OA       0.032450
     40 H8           3.4080    -3.9710    -0.4340 h1         1 3OA       0.047200
     41 H9           3.6430    -2.9160     0.9730 h1         1 3OA       0.047200
     42 H10          3.1140    -1.0810    -0.9360 hn         1 3OA       0.384000
     43 H11          1.1390    -4.0260    -0.1680 ha         1 3OA       0.116000
     44 H12         -1.2190    -3.9630     0.4500 ha         1 3OA       0.116000
     45 H14          3.0250     2.2570    -0.9190 ho         1 3OA       0.519000
     46 H15          1.4920     5.3330    -0.0160 ha         1 3OA       0.133000
     47 H16         -0.9030     5.4100     0.6480 ha         1 3OA       0.133000
     48 H17         -2.8610     2.4450     0.7230 ho         1 3OA       0.519000
     49 H19         -3.1680    -0.8980     0.7110 hn         1 3OA       0.384000
     50 H20         -3.7180    -3.2550    -0.5130 h1         1 3OA       0.047200
     51 H21         -3.3900    -3.8020     1.1440 h1         1 3OA       0.047200
     52 H22         -5.8050    -3.3910     0.8290 h1         1 3OA       0.032450
     53 H23         -5.1310    -2.2640     2.0280 h1         1 3OA       0.032450
     54 H24         -7.6380    -1.7010     0.3840 h1         1 3OA       0.029700
     55 H25         -6.8980    -0.5560     1.5240 h1         1 3OA       0.029700
     56 H26         -8.1290     0.7590    -0.0790 h1         1 3OA       0.028700
     57 H27         -6.4090     1.0040    -0.4190 h1         1 3OA       0.028700
     58 H28         -7.5810     0.6300    -2.3600 ho         1 3OA       0.503000
@<TRIPOS>BOND
     1     1     2 1   
     2     1    33 1   
     3     2     3 1   
     4     2    34 1   
     5     2    35 1   
     6     3     4 1   
     7     3    36 1   
     8     3    37 1   
     9     4     5 1   
    10     5     6 1   
    11     5    38 1   
    12     5    39 1   
    13     6     7 1   
    14     6    40 1   
    15     6    41 1   
    16     7     8 1   
    17     7    42 1   
    18     8     9 ar  
    19     8    11 ar  
    20     9    10 ar  
    21     9    43 1   
    22    10    25 ar  
    23    10    44 1   
    24    11    12 1   
    25    11    24 ar  
    26    12    13 2   
    27    12    14 1   
    28    14    15 ar  
    29    14    21 ar  
    30    15    16 1   
    31    15    17 ar  
    32    16    45 1   
    33    17    18 ar  
    34    17    46 1   
    35    18    19 ar  
    36    18    47 1   
    37    19    20 1   
    38    19    21 ar  
    39    20    48 1   
    40    21    22 1   
    41    22    23 2   
    42    22    24 1   
    43    24    25 ar  
    44    25    26 1   
    45    26    27 1   
    46    26    49 1   
    47    27    28 1   
    48    27    50 1   
    49    27    51 1   
    50    28    29 1   
    51    28    52 1   
    52    28    53 1   
    53    29    30 1   
    54    30    31 1   
    55    30    54 1   
    56    30    55 1   
    57    31    32 1   
    58    31    56 1   
    59    31    57 1   
    60    32    58 1   
@<TRIPOS>SUBSTRUCTURE
     1 3OA         1 TEMP              0 ****  ****    0 ROOT
