@<TRIPOS>MOLECULE
3OB
   56    59     1     0     0
SMALL
abcg2


@<TRIPOS>ATOM
      1 C1          -6.2290     0.7550    -0.5060 ca         1 3OB       0.013000
      2 C2          -6.0880     1.2910     0.7720 ca         1 3OB      -0.092000
      3 C3          -4.8070     1.4150     1.2800 ca         1 3OB       0.134000
      4 C4          -3.6920     1.0250     0.5580 ca         1 3OB      -0.128000
      5 C5          -3.8690     0.4630    -0.7000 ca         1 3OB       0.167100
      6 C6          -5.1320     0.3350    -1.2510 ca         1 3OB      -0.090000
      7 O7          -2.8080     0.1220    -1.4790 os         1 3OB      -0.246200
      8 C8          -7.5380     0.6260    -1.0630 cg         1 3OB       0.322000
      9 CL9         -4.5890     2.0830     2.8580 cl         1 3OB      -0.187000
     10 C10         -1.7330    -0.5040    -0.9320 cc         1 3OB       0.206100
     11 C11         -0.4690    -0.0190    -1.3370 cc         1 3OB      -0.291000
     12 C12          0.6390    -0.6280    -0.8450 cd         1 3OB       0.101400
     13 N13          0.5010    -1.6790    -0.0050 ns         1 3OB      -0.355100
     14 C14         -0.6950    -2.2330     0.4130 c          1 3OB       0.547200
     15 C15         -1.8790    -1.5750    -0.0890 cd         1 3OB      -0.075200
     16 N16         -3.1620    -2.0480     0.2170 nh         1 3OB      -0.653400
     17 O17         -0.6950    -3.2150     1.1490 o          1 3OB      -0.560000
     18 C18         -3.6350    -3.1450    -0.5970 c3         1 3OB       0.187100
     19 C19         -3.5240    -2.1470     1.6130 c3         1 3OB       0.187100
     20 C20          2.0270    -0.1920    -1.1750 c3         1 3OB      -0.139200
     21 N21         -8.5940     0.5230    -1.5120 n1         1 3OB      -0.445000
     22 C22          2.6060     0.6700    -0.0570 c          1 3OB       0.606100
     23 O23          1.9610     0.8710     0.9600 o          1 3OB      -0.584100
     24 N24          3.8230     1.2080    -0.2670 n          1 3OB      -0.400800
     25 C25          4.7160     0.8590    -1.3500 c6         1 3OB       0.145300
     26 C26          5.4800     1.0330     1.4930 c6         1 3OB      -0.060100
     27 C27          4.4940     1.9500     0.7860 c6         1 3OB       0.094000
     28 C28          6.3290     0.2690     0.5080 ca         1 3OB      -0.063300
     29 C29          5.9600     0.1710    -0.8340 ca         1 3OB      -0.117300
     30 C30          6.7580    -0.5450    -1.7220 ca         1 3OB      -0.103000
     31 C31          7.9180    -1.1690    -1.2900 ca         1 3OB      -0.108000
     32 C32          8.2890    -1.0770     0.0470 ca         1 3OB      -0.099000
     33 C33          7.4970    -0.3630     0.9320 ca         1 3OB      -0.106000
     34 H2          -6.9510     1.6030     1.3420 ha         1 3OB       0.142000
     35 H4          -2.7010     1.1470     0.9760 ha         1 3OB       0.147000
     36 H6          -5.2610    -0.0930    -2.2360 ha         1 3OB       0.142000
     37 H11         -0.3870     0.8230    -2.0080 ha         1 3OB       0.214000
     38 HN13         1.3370    -2.1310     0.3420 hn         1 3OB       0.328500
     39 H18         -3.2050    -4.1140    -0.3140 h1         1 3OB       0.035700
     40 H18A        -4.7210    -3.2210    -0.5060 h1         1 3OB       0.035700
     41 H18B        -3.4060    -2.9630    -1.6470 h1         1 3OB       0.035700
     42 H19         -3.0950    -1.3170     2.1730 h1         1 3OB       0.035700
     43 H19A        -4.6110    -2.0750     1.7050 h1         1 3OB       0.035700
     44 H19B        -3.2050    -3.0810     2.0880 h1         1 3OB       0.035700
     45 H20          2.6610    -1.0670    -1.3450 hc         1 3OB       0.081700
     46 H20A         2.0150     0.3670    -2.1120 hc         1 3OB       0.081700
     47 H25          4.2160     0.2280    -2.0800 h1         1 3OB       0.058200
     48 H25A         4.9990     1.7740    -1.8800 h1         1 3OB       0.058200
     49 H26          6.1180     1.6190     2.1590 hc         1 3OB       0.063700
     50 H26A         4.9330     0.3300     2.1280 hc         1 3OB       0.063700
     51 H27          5.0190     2.7870     0.3200 h1         1 3OB       0.068200
     52 H27A         3.7660     2.3630     1.4790 h1         1 3OB       0.068200
     53 H30          6.4640    -0.6180    -2.7630 ha         1 3OB       0.110000
     54 H31          8.5260    -1.7280    -1.9900 ha         1 3OB       0.117000
     55 H32          9.1930    -1.5580     0.3960 ha         1 3OB       0.117000
     56 H33          7.7890    -0.2890     1.9740 ha         1 3OB       0.116000
@<TRIPOS>BOND
     1     1     2 ar  
     2     1     6 ar  
     3     1     8 1   
     4     2     3 ar  
     5     2    34 1   
     6     3     4 ar  
     7     3     9 1   
     8     4     5 ar  
     9     4    35 1   
    10     5     6 ar  
    11     5     7 1   
    12     6    36 1   
    13     7    10 1   
    14     8    21 3   
    15    10    11 1   
    16    10    15 2   
    17    11    12 2   
    18    11    37 1   
    19    12    13 1   
    20    12    20 1   
    21    13    14 1   
    22    13    38 1   
    23    14    15 1   
    24    14    17 2   
    25    15    16 1   
    26    16    18 1   
    27    16    19 1   
    28    18    39 1   
    29    18    40 1   
    30    18    41 1   
    31    19    42 1   
    32    19    43 1   
    33    19    44 1   
    34    20    22 1   
    35    20    45 1   
    36    20    46 1   
    37    22    23 2   
    38    22    24 1   
    39    24    25 1   
    40    24    27 1   
    41    25    29 1   
    42    25    47 1   
    43    25    48 1   
    44    26    27 1   
    45    26    28 1   
    46    26    49 1   
    47    26    50 1   
    48    27    51 1   
    49    27    52 1   
    50    28    29 ar  
    51    28    33 ar  
    52    29    30 ar  
    53    30    31 ar  
    54    30    53 1   
    55    31    32 ar  
    56    31    54 1   
    57    32    33 ar  
    58    32    55 1   
    59    33    56 1   
@<TRIPOS>SUBSTRUCTURE
     1 3OB         1 TEMP              0 ****  ****    0 ROOT
