@<TRIPOS>MOLECULE
3OB
   56    59     1     0     0
SMALL
No Charge or Current Charge


@<TRIPOS>ATOM
      1 C1          -3.2030     2.7440    -0.4850 ca         1 3OB       0.013000
      2 C2          -3.4810     2.6020     0.8870 ca         1 3OB      -0.092000
      3 C3          -3.0160     1.4760     1.5810 ca         1 3OB       0.134000
      4 C4          -2.2720     0.4860     0.9210 ca         1 3OB      -0.128000
      5 C5          -1.9870     0.6180    -0.4640 ca         1 3OB       0.167100
      6 C6          -2.4580     1.7520    -1.1500 ca         1 3OB      -0.090000
      7 O7          -1.2630    -0.3020    -1.2160 os         1 3OB      -0.246200
      8 C8          -3.6770     3.8960    -1.2030 cg         1 3OB       0.322000
      9 Cl9         -3.3660     1.3020     3.2960 cl         1 3OB      -0.187000
     10 C10         -0.8820    -1.3950    -0.4790 cc         1 3OB       0.206100
     11 C11          0.3770    -1.3600     0.1930 cc         1 3OB      -0.291000
     12 C12          0.7590    -2.4240     0.9710 cd         1 3OB       0.101400
     13 N13         -0.0920    -3.5010     1.0690 ns         1 3OB      -0.355100
     14 C14         -1.3220    -3.6370     0.4640 c          1 3OB       0.547200
     15 C15         -1.7650    -2.4750    -0.3990 cd         1 3OB      -0.075200
     16 N16         -3.0230    -2.4670    -1.0830 nh         1 3OB      -0.653400
     17 O17         -1.9700    -4.6610     0.6390 o          1 3OB      -0.560000
     18 C18         -3.1530    -2.0580    -2.5020 c3         1 3OB       0.187100
     19 C19         -4.2450    -3.0240    -0.4620 c3         1 3OB       0.187100
     20 C20          2.0510    -2.5550     1.7390 c3         1 3OB      -0.139200
     21 N21         -4.0630     4.8250    -1.7960 n1         1 3OB      -0.445000
     22 C22          2.5990    -1.2040     2.2230 c          1 3OB       0.606100
     23 O23          2.1610    -0.7050     3.2520 o          1 3OB      -0.584100
     24 N24          3.6120    -0.5450     1.4860 n          1 3OB      -0.400800
     25 C25          3.9830    -0.9390     0.0880 c6         1 3OB       0.145300
     26 C26          5.3920     1.2860     1.1960 c6         1 3OB      -0.060100
     27 C27          4.1970     0.7310     2.0060 c6         1 3OB       0.094000
     28 C28          5.0630     1.3200    -0.2860 ca         1 3OB      -0.063300
     29 C29          4.3530     0.2350    -0.8230 ca         1 3OB      -0.117300
     30 C30          4.0100     0.2310    -2.1890 ca         1 3OB      -0.103000
     31 C31          4.3780     1.3110    -3.0100 ca         1 3OB      -0.108000
     32 C32          5.0930     2.3950    -2.4700 ca         1 3OB      -0.099000
     33 C33          5.4360     2.4000    -1.1070 ca         1 3OB      -0.106000
     34 H2          -4.0550     3.3600     1.4150 ha         1 3OB       0.142000
     35 H4          -1.9360    -0.3650     1.5030 ha         1 3OB       0.147000
     36 H6          -2.2410     1.8550    -2.2110 ha         1 3OB       0.142000
     37 H11          0.9980    -0.4780     0.0760 ha         1 3OB       0.214000
     38 HN13         0.1780    -4.2990     1.6300 hn         1 3OB       0.328500
     39 H18         -3.8420    -2.7250    -3.0360 h1         1 3OB       0.035700
     40 H18A        -3.5410    -1.0330    -2.5690 h1         1 3OB       0.035700
     41 H18B        -2.1800    -2.1000    -3.0080 h1         1 3OB       0.035700
     42 H19         -4.1950    -2.9400     0.6320 h1         1 3OB       0.035700
     43 H19A        -5.1350    -2.4790    -0.8040 h1         1 3OB       0.035700
     44 H19B        -4.3620    -4.0830    -0.7280 h1         1 3OB       0.035700
     45 H20          1.8810    -3.1720     2.6300 hc         1 3OB       0.081700
     46 H20A         2.7830    -3.0580     1.1010 hc         1 3OB       0.081700
     47 H25          4.8340    -1.6320     0.1330 h1         1 3OB       0.058200
     48 H25A         3.1530    -1.4770    -0.3880 h1         1 3OB       0.058200
     49 H26          5.6550     2.2870     1.5630 hc         1 3OB       0.063700
     50 H26A         6.2730     0.6500     1.3580 hc         1 3OB       0.063700
     51 H27          3.4030     1.4910     2.0170 h1         1 3OB       0.068200
     52 H27A         4.5140     0.5850     3.0490 h1         1 3OB       0.068200
     53 H30          3.4630    -0.6080    -2.6150 ha         1 3OB       0.110000
     54 H31          4.1130     1.3070    -4.0650 ha         1 3OB       0.117000
     55 H32          5.3780     3.2300    -3.1060 ha         1 3OB       0.117000
     56 H33          5.9860     3.2410    -0.6910 ha         1 3OB       0.116000
@<TRIPOS>BOND
     1     1     2 ar  
     2     1     6 ar  
     3     1     8 1   
     4     2     3 ar  
     5     2    34 1   
     6     3     4 ar  
     7     3     9 1   
     8     4     5 ar  
     9     4    35 1   
    10     5     6 ar  
    11     5     7 1   
    12     6    36 1   
    13     7    10 1   
    14     8    21 3   
    15    10    11 1   
    16    10    15 2   
    17    11    12 2   
    18    11    37 1   
    19    12    13 1   
    20    12    20 1   
    21    13    14 1   
    22    13    38 1   
    23    14    15 1   
    24    14    17 2   
    25    15    16 1   
    26    16    18 1   
    27    16    19 1   
    28    18    39 1   
    29    18    40 1   
    30    18    41 1   
    31    19    42 1   
    32    19    43 1   
    33    19    44 1   
    34    20    22 1   
    35    20    45 1   
    36    20    46 1   
    37    22    23 2   
    38    22    24 1   
    39    24    25 1   
    40    24    27 1   
    41    25    29 1   
    42    25    47 1   
    43    25    48 1   
    44    26    27 1   
    45    26    28 1   
    46    26    49 1   
    47    26    50 1   
    48    27    51 1   
    49    27    52 1   
    50    28    29 ar  
    51    28    33 ar  
    52    29    30 ar  
    53    30    31 ar  
    54    30    53 1   
    55    31    32 ar  
    56    31    54 1   
    57    32    33 ar  
    58    32    55 1   
    59    33    56 1   
@<TRIPOS>SUBSTRUCTURE
     1 3OB         1 TEMP              0 ****  ****    0 ROOT
