@<TRIPOS>MOLECULE
3OC
   19    19     1     0     0
SMALL
abcg2


@<TRIPOS>ATOM
      1 CAF          0.0660    -1.5340     0.0350 c6         1 3OC      -0.058400
      2 CAD         -1.4000    -1.7100     0.4110 c6         1 3OC      -0.070400
      3 CAE         -2.2940    -0.6980    -0.3120 c6         1 3OC      -0.186400
      4 CAH         -1.7970     0.7050    -0.0840 c          1 3OC       0.574100
      5 OAA         -2.5190     1.5950     0.3140 o          1 3OC      -0.570100
      6 CAG         -0.3370     0.9150    -0.3840 c6         1 3OC      -0.157400
      7 CAJ          0.5530    -0.1200     0.3250 c6         1 3OC      -0.186700
      8 CAI          2.0460     0.1120    -0.0100 c          1 3OC       0.722000
      9 OAC          2.7540    -0.8980    -0.1890 o          1 3OC      -0.731000
     10 OAB          2.4290     1.2980    -0.0500 o          1 3OC      -0.731000
     11 HAF          0.6730    -2.2560     0.5810 hc         1 3OC       0.045700
     12 HAFA         0.1980    -1.7580    -1.0290 hc         1 3OC       0.045700
     13 HAD         -1.7380    -2.7210     0.1740 hc         1 3OC       0.024200
     14 HADA        -1.5210    -1.5880     1.4920 hc         1 3OC       0.024200
     15 HAE         -2.2510    -0.8940    -1.3900 hc         1 3OC       0.044700
     16 HAEA        -3.3360    -0.7840    -0.0030 hc         1 3OC       0.044700
     17 HAG         -0.2080     0.8090    -1.4690 hc         1 3OC       0.067700
     18 HAGA        -0.0450     1.9290    -0.1150 hc         1 3OC       0.067700
     19 HAJ          0.4510     0.0530     1.4070 hc         1 3OC       0.031700
@<TRIPOS>BOND
     1     1     2 1   
     2     1     7 1   
     3     1    11 1   
     4     1    12 1   
     5     2     3 1   
     6     2    13 1   
     7     2    14 1   
     8     3     4 1   
     9     3    15 1   
    10     3    16 1   
    11     4     5 2   
    12     4     6 1   
    13     6     7 1   
    14     6    17 1   
    15     6    18 1   
    16     7     8 1   
    17     7    19 1   
    18     8     9 1   
    19     8    10 1   
@<TRIPOS>SUBSTRUCTURE
     1 3OC         1 TEMP              0 ****  ****    0 ROOT
