@<TRIPOS>MOLECULE
3OC
   19    19     1     0     0
SMALL
No Charge or Current Charge


@<TRIPOS>ATOM
      1 CAF          0.0870    -1.5070     0.2090 c6         1 3OC      -0.058400
      2 CAD         -1.4090    -1.6700     0.5780 c6         1 3OC      -0.070400
      3 CAE         -2.3160    -0.7750    -0.3030 c6         1 3OC      -0.186400
      4 CAH         -1.8440     0.6880    -0.3110 c          1 3OC       0.574100
      5 OAA         -2.6050     1.6190    -0.0750 o          1 3OC      -0.570100
      6 CAG         -0.3440     0.9030    -0.5690 c6         1 3OC      -0.157400
      7 CAJ          0.5520    -0.0260     0.3100 c6         1 3OC      -0.186700
      8 CAI          2.0630     0.1340    -0.0030 c          1 3OC       0.722000
      9 OAC          2.4570    -0.1520    -1.1240 o          1 3OC      -0.731000
     10 OAB          2.7920     0.5470     0.8870 o          1 3OC      -0.731000
     11 HAF          0.6970    -2.1320     0.8760 hc         1 3OC       0.045700
     12 HAFA         0.2570    -1.8860    -0.8080 hc         1 3OC       0.045700
     13 HAD         -1.7060    -2.7220     0.4710 hc         1 3OC       0.024200
     14 HADA        -1.5560    -1.4110     1.6360 hc         1 3OC       0.024200
     15 HAE         -2.1860    -1.1500    -1.3270 hc         1 3OC       0.044700
     16 HAEA        -3.3760    -0.8430    -0.0240 hc         1 3OC       0.044700
     17 HAG         -0.1700     0.5880    -1.6070 hc         1 3OC       0.067700
     18 HAGA        -0.0840     1.9650    -0.4660 hc         1 3OC       0.067700
     19 HAJ          0.4140     0.2870     1.3550 hc         1 3OC       0.031700
@<TRIPOS>BOND
     1     1     2 1   
     2     1     7 1   
     3     1    11 1   
     4     1    12 1   
     5     2     3 1   
     6     2    13 1   
     7     2    14 1   
     8     3     4 1   
     9     3    15 1   
    10     3    16 1   
    11     4     5 2   
    12     4     6 1   
    13     6     7 1   
    14     6    17 1   
    15     6    18 1   
    16     7     8 1   
    17     7    19 1   
    18     8     9 1   
    19     8    10 1   
@<TRIPOS>SUBSTRUCTURE
     1 3OC         1 TEMP              0 ****  ****    0 ROOT
