@<TRIPOS>MOLECULE
3OD
   62    65     1     0     0
SMALL
No Charge or Current Charge


@<TRIPOS>ATOM
      1 O15          5.0500     2.7210     1.2720 o          1 3OD      -0.519000
      2 C16          3.8830     2.3510     1.2890 c          1 3OD       0.614100
      3 C17          2.7250     3.2570     1.6850 c3         1 3OD      -0.157100
      4 O13          3.4320     1.1040     0.9300 os         1 3OD      -0.400100
      5 C13          4.4700     0.1240     0.6210 c5         1 3OD       0.146300
      6 C14          4.8690    -0.6960     1.8920 c5         1 3OD       0.116300
      7 O10          5.2230     0.0750     3.0540 oh         1 3OD      -0.689000
      8 C15          3.5980    -1.6020     2.1060 c5         1 3OD       0.349300
      9 O14          2.6810    -1.0040     3.0080 oh         1 3OD      -0.656000
     10 O12          2.9660    -1.6990     0.8170 os         1 3OD      -0.439000
     11 C12          3.8030    -1.0340    -0.1710 c5         1 3OD       0.159300
     12 C11          2.9920    -0.5890    -1.4190 c3         1 3OD       0.243600
     13 O11          2.9170    -1.6840    -2.3460 os         1 3OD      -0.579400
     14 P2           1.5070    -2.0180    -3.0500 p5         1 3OD       1.466800
     15 O8           0.8810    -0.7510    -3.5290 o          1 3OD      -0.850500
     16 O9           1.7440    -2.9940    -4.1550 o          1 3OD      -0.850500
     17 O7           0.8280    -2.6580    -1.7840 os         1 3OD      -0.705800
     18 P1          -0.5680    -3.3110    -2.0950 p5         1 3OD       1.482800
     19 O2          -0.4290    -4.7020    -2.6210 o          1 3OD      -0.850500
     20 O1          -1.5090    -2.4910    -2.9110 o          1 3OD      -0.850500
     21 O3          -1.1010    -3.3920    -0.5720 os         1 3OD      -0.583400
     22 C1          -1.6450    -2.2530     0.1220 c3         1 3OD       0.229600
     23 C2          -0.5370    -1.1980     0.4470 c5         1 3OD       0.135300
     24 C3          -0.7770    -0.4130     1.7680 c5         1 3OD       0.098300
     25 O5           0.3660     0.3270     2.2000 oh         1 3OD      -0.714000
     26 C4          -1.8880     0.5710     1.3090 c5         1 3OD       0.058300
     27 O6          -1.9460     1.7190     2.1830 oh         1 3OD      -0.703000
     28 C5          -1.4440     0.8980    -0.1680 c5         1 3OD       0.332300
     29 O4          -0.5150    -0.1430    -0.5460 os         1 3OD      -0.384000
     30 N1          -2.5070     0.9940    -1.1670 na         1 3OD      -0.272300
     31 C10         -3.7280     1.6140    -1.0700 ca         1 3OD       0.121500
     32 C7          -4.3310     1.5190    -2.3000 ca         1 3OD      -0.051600
     33 N2          -3.5390     0.8590    -3.2320 nc         1 3OD      -0.568100
     34 C6          -2.4420     0.5580    -2.5060 cd         1 3OD       0.487700
     35 N5          -4.3240     2.2390    -0.0320 nb         1 3OD      -0.209000
     36 C9          -5.5500     2.7590    -0.2740 ca         1 3OD       0.135900
     37 N4          -6.2300     2.7160    -1.4440 nb         1 3OD      -0.333000
     38 C8          -5.6140     2.0900    -2.4580 ca         1 3OD       0.428900
     39 N3          -6.3000     2.0590    -3.6340 nv         1 3OD      -1.087900
     40 H171         3.0480     4.2770     1.9220 hc         1 3OD       0.065033
     41 H172         1.9700     3.2380     0.8920 hc         1 3OD       0.065033
     42 H173         2.1920     2.7960     2.5240 hc         1 3OD       0.065033
     43 H13          5.3150     0.5690     0.0760 h1         1 3OD       0.078700
     44 H14          5.7180    -1.3450     1.6360 h1         1 3OD       0.036700
     45 HO10         4.3910     0.1030     3.5860 ho         1 3OD       0.492000
     46 H15          3.8870    -2.5970     2.4680 h2         1 3OD       0.030700
     47 HO14         1.9800    -0.5850     2.4460 ho         1 3OD       0.446000
     48 H12          4.5770    -1.7410    -0.5030 h1         1 3OD       0.067700
     49 H111         2.0010    -0.2420    -1.1000 h1         1 3OD       0.026700
     50 H112         3.5070     0.2560    -1.8930 h1         1 3OD       0.026700
     51 H11         -2.4530    -1.7890    -0.4580 h1         1 3OD       0.013200
     52 H12A        -2.0850    -2.5960     1.0670 h1         1 3OD       0.013200
     53 H2           0.4350    -1.7040     0.4780 h1         1 3OD       0.091700
     54 H3          -1.1280    -1.0710     2.5750 h1         1 3OD       0.037700
     55 HO5         -0.0360     1.1810     2.4950 ho         1 3OD       0.500000
     56 H4          -2.8580     0.0520     1.3020 h1         1 3OD       0.066700
     57 HO6         -2.7690     2.2170     1.9600 ho         1 3OD       0.491000
     58 H5          -0.9200     1.8610    -0.1950 h2         1 3OD       0.094700
     59 H6          -1.5590     0.0540    -2.8850 h5         1 3OD       0.138800
     60 H9          -6.0390     3.2640     0.5570 h5         1 3OD       0.013100
     61 HN31        -5.7770     1.7920    -4.4640 hn         1 3OD       0.492000
     62 HN32        -7.0640     2.7180    -3.7630 hn         1 3OD       0.492000
@<TRIPOS>BOND
     1     1     2 2   
     2     2     3 1   
     3     2     4 1   
     4     3    40 1   
     5     3    41 1   
     6     3    42 1   
     7     4     5 1   
     8     5     6 1   
     9     5    11 1   
    10     5    43 1   
    11     6     7 1   
    12     6     8 1   
    13     6    44 1   
    14     7    45 1   
    15     8     9 1   
    16     8    10 1   
    17     8    46 1   
    18     9    47 1   
    19    10    11 1   
    20    11    12 1   
    21    11    48 1   
    22    12    13 1   
    23    12    49 1   
    24    12    50 1   
    25    13    14 1   
    26    14    15 1   
    27    14    16 1   
    28    14    17 1   
    29    17    18 1   
    30    18    19 1   
    31    18    20 1   
    32    18    21 1   
    33    21    22 1   
    34    22    23 1   
    35    22    51 1   
    36    22    52 1   
    37    23    24 1   
    38    23    29 1   
    39    23    53 1   
    40    24    25 1   
    41    24    26 1   
    42    24    54 1   
    43    25    55 1   
    44    26    27 1   
    45    26    28 1   
    46    26    56 1   
    47    27    57 1   
    48    28    29 1   
    49    28    30 1   
    50    28    58 1   
    51    30    31 1   
    52    30    34 1   
    53    31    32 ar  
    54    31    35 ar  
    55    32    33 1   
    56    32    38 ar  
    57    33    34 2   
    58    34    59 1   
    59    35    36 ar  
    60    36    37 ar  
    61    36    60 1   
    62    37    38 ar  
    63    38    39 1   
    64    39    61 1   
    65    39    62 1   
@<TRIPOS>SUBSTRUCTURE
     1 3OD         1 TEMP              0 ****  ****    0 ROOT
