@<TRIPOS>MOLECULE
3OD
   62    65     1     0     0
SMALL
bcc


@<TRIPOS>ATOM
      1 O15          5.6820     3.7150    -0.4990 o          1 3OD      -0.568000
      2 C16          4.7850     3.3630     0.2230 c          1 3OD       0.663100
      3 C17          3.9180     4.2810     1.0310 c3         1 3OD      -0.157100
      4 O13          4.4240     2.0940     0.4020 os         1 3OD      -0.376900
      5 C13          5.1930     1.0600    -0.2010 c5         1 3OD       0.123100
      6 C14          6.2050     0.5130     0.7980 c5         1 3OD       0.093100
      7 O10          6.8390     1.5330     1.4990 oh         1 3OD      -0.566800
      8 C15          5.3510    -0.4540     1.6300 c5         1 3OD       0.302900
      9 O14          4.7100     0.2360     2.6470 oh         1 3OD      -0.593800
     10 O12          4.4580    -1.0040     0.6960 os         1 3OD      -0.392600
     11 C12          4.3240    -0.1680    -0.4530 c5         1 3OD       0.136100
     12 C11          2.8710     0.1270    -0.7560 c3         1 3OD       0.220400
     13 O11          2.2390    -1.0950    -1.0700 os         1 3OD      -0.556200
     14 P2           0.7910    -1.0710    -1.8670 p5         1 3OD       1.466800
     15 O8           0.0810     0.2010    -1.5340 o          1 3OD      -0.850500
     16 O9           1.0270    -1.4790    -3.2890 o          1 3OD      -0.850500
     17 O7           0.1400    -2.3210    -1.0330 os         1 3OD      -0.705800
     18 P1          -0.6550    -3.6070    -1.6640 p5         1 3OD       1.482800
     19 O2           0.3370    -4.6490    -2.0670 o          1 3OD      -0.850500
     20 O1          -1.7340    -3.1580    -2.6040 o          1 3OD      -0.850500
     21 O3          -1.3290    -4.1640    -0.2700 os         1 3OD      -0.560200
     22 C1          -2.6400    -3.8430     0.1310 c3         1 3OD       0.206400
     23 C2          -2.6730    -2.7540     1.1900 c5         1 3OD       0.112100
     24 C3          -4.0900    -2.4850     1.6850 c5         1 3OD       0.075100
     25 O5          -4.0360    -2.0350     3.0150 oh         1 3OD      -0.591800
     26 C4          -4.5170    -1.3560     0.7460 c5         1 3OD       0.035100
     27 O6          -5.5380    -0.5360     1.2300 oh         1 3OD      -0.580800
     28 C5          -3.2170    -0.5630     0.6280 c5         1 3OD       0.279800
     29 O4          -2.1930    -1.5090     0.6750 os         1 3OD      -0.337600
     30 N1          -3.1260     0.2080    -0.5850 na         1 3OD      -0.243000
     31 C10         -3.3270     1.5530    -0.6890 ca         1 3OD       0.449800
     32 C7          -3.2500     1.8260    -2.0460 ca         1 3OD      -0.182200
     33 N2          -3.0040     0.6820    -2.7580 nc         1 3OD      -0.568100
     34 C6          -2.9250    -0.2540    -1.8580 cd         1 3OD       0.487700
     35 N5          -3.5540     2.4350     0.2830 nb         1 3OD      -0.735000
     36 C9          -3.7030     3.6590    -0.1910 ca         1 3OD       0.661900
     37 N4          -3.6580     4.0680    -1.4570 nb         1 3OD      -0.859000
     38 C8          -3.4320     3.1670    -2.4210 ca         1 3OD       0.757200
     39 N3          -3.3950     3.5710    -3.6950 nv         1 3OD      -0.977500
     40 H171         4.1490     5.3190     0.8090 hc         1 3OD       0.065033
     41 H172         2.8620     4.0970     0.8310 hc         1 3OD       0.065033
     42 H173         4.0800     4.1040     2.0950 hc         1 3OD       0.065033
     43 H13          5.6530     1.4160    -1.1230 h1         1 3OD       0.078700
     44 H14          6.9170    -0.1000     0.2280 h1         1 3OD       0.036700
     45 HO10         7.5000     1.1410     2.0790 ho         1 3OD       0.393000
     46 H15          5.9420    -1.2830     2.0360 h2         1 3OD       0.030700
     47 HO14         4.3550    -0.4020     3.2740 ho         1 3OD       0.407000
     48 H12          4.7500    -0.7010    -1.3120 h1         1 3OD       0.067700
     49 H111         2.3900     0.6050     0.1010 h1         1 3OD       0.026700
     50 H112         2.8340     0.8360    -1.5910 h1         1 3OD       0.026700
     51 H11         -3.2620    -3.5680    -0.7270 h1         1 3OD       0.013200
     52 H12A        -3.0780    -4.7440     0.5710 h1         1 3OD       0.013200
     53 H2          -2.0280    -3.0540     2.0230 h1         1 3OD       0.091700
     54 H3          -4.7360    -3.3670     1.5850 h1         1 3OD       0.037700
     55 HO5         -4.8280    -1.5090     3.1790 ho         1 3OD       0.401000
     56 H4          -4.7710    -1.7820    -0.2340 h1         1 3OD       0.066700
     57 HO6         -6.3860    -0.9480     1.0350 ho         1 3OD       0.392000
     58 H5          -3.1430     0.1590     1.4510 h2         1 3OD       0.094700
     59 H6          -2.6920    -1.2910    -2.0610 h5         1 3OD       0.138800
     60 H9          -3.8880     4.4370     0.5430 h5         1 3OD       0.013100
     61 HN31        -3.1710     2.9300    -4.4340 hn         1 3OD       0.436800
     62 HN32        -3.4830     4.5470    -3.9190 hn         1 3OD       0.436800
@<TRIPOS>BOND
     1     1     2 2   
     2     2     3 1   
     3     2     4 1   
     4     3    40 1   
     5     3    41 1   
     6     3    42 1   
     7     4     5 1   
     8     5     6 1   
     9     5    11 1   
    10     5    43 1   
    11     6     7 1   
    12     6     8 1   
    13     6    44 1   
    14     7    45 1   
    15     8     9 1   
    16     8    10 1   
    17     8    46 1   
    18     9    47 1   
    19    10    11 1   
    20    11    12 1   
    21    11    48 1   
    22    12    13 1   
    23    12    49 1   
    24    12    50 1   
    25    13    14 1   
    26    14    15 1   
    27    14    16 1   
    28    14    17 1   
    29    17    18 1   
    30    18    19 1   
    31    18    20 1   
    32    18    21 1   
    33    21    22 1   
    34    22    23 1   
    35    22    51 1   
    36    22    52 1   
    37    23    24 1   
    38    23    29 1   
    39    23    53 1   
    40    24    25 1   
    41    24    26 1   
    42    24    54 1   
    43    25    55 1   
    44    26    27 1   
    45    26    28 1   
    46    26    56 1   
    47    27    57 1   
    48    28    29 1   
    49    28    30 1   
    50    28    58 1   
    51    30    31 1   
    52    30    34 1   
    53    31    32 ar  
    54    31    35 ar  
    55    32    33 1   
    56    32    38 ar  
    57    33    34 2   
    58    34    59 1   
    59    35    36 ar  
    60    36    37 ar  
    61    36    60 1   
    62    37    38 ar  
    63    38    39 1   
    64    39    61 1   
    65    39    62 1   
@<TRIPOS>SUBSTRUCTURE
     1 3OD         1 TEMP              0 ****  ****    0 ROOT
