@<TRIPOS>MOLECULE
3OE
   80    83     1     0     0
SMALL
bcc


@<TRIPOS>ATOM
      1 C8          -3.3990    -1.4090     0.6860 ca         1 3OE      -0.196600
      2 C27         -2.0540    -1.9470     1.0350 c          1 3OE       0.689700
      3 O28         -1.7470    -2.1750     2.1970 o          1 3OE      -0.598100
      4 C34         -4.1860    -0.8870     1.7150 ca         1 3OE      -0.047500
      5 C33         -5.4410    -0.3750     1.4660 ca         1 3OE      -0.206000
      6 C30         -3.9290    -1.4180    -0.6010 ca         1 3OE      -0.047500
      7 C31         -5.1920    -0.9120    -0.8690 ca         1 3OE      -0.206000
      8 C32         -5.9580    -0.3790     0.1670 ca         1 3OE       0.171100
      9 O35         -7.1860     0.1380     0.0130 os         1 3OE      -0.313900
     10 C36         -7.7500     0.1860    -1.2940 c3         1 3OE       0.187700
     11 C37         -9.0870     0.8530    -1.1820 ca         1 3OE      -0.100300
     12 C38        -10.2530     0.0960    -1.1410 ca         1 3OE      -0.101000
     13 C39        -11.4910     0.7130    -1.0130 ca         1 3OE      -0.132500
     14 C40        -11.5700     2.0950    -0.9190 ca         1 3OE      -0.114000
     15 C41        -10.4090     2.8580    -0.9580 ca         1 3OE      -0.132500
     16 C42         -9.1740     2.2390    -1.0880 ca         1 3OE      -0.101000
     17 N18         -1.2100    -2.1630     0.0020 ns         1 3OE      -0.575900
     18 C17          0.1380    -2.6540     0.1540 c3         1 3OE      -0.010300
     19 C15          1.0960    -1.6410    -0.4610 c          1 3OE       0.658100
     20 O16          0.8790    -1.1790    -1.5720 o          1 3OE      -0.619100
     21 C19          0.2940    -4.0260    -0.5370 c3         1 3OE       0.150100
     22 O20         -0.6350    -4.9360    -0.0010 oh         1 3OE      -0.585800
     23 C43          1.6830    -4.6000    -0.3360 c3         1 3OE      -0.094100
     24 N13          2.1620    -1.3340     0.2890 ns         1 3OE      -0.551900
     25 C11          3.2210    -0.4540    -0.1380 c3         1 3OE       0.025700
     26 C9           4.5610    -1.1230     0.1550 c          1 3OE       0.657100
     27 O10          4.7080    -1.8380     1.1350 o          1 3OE      -0.607100
     28 C12          3.1700     0.9020     0.5780 c3         1 3OE      -0.086400
     29 C14          1.8610     1.6510     0.3290 c3         1 3OE      -0.030100
     30 C21          1.8730     3.0030     0.9860 ca         1 3OE      -0.082300
     31 C22          1.3460     3.1790     2.2630 ca         1 3OE      -0.124500
     32 C23          2.4470     4.1000     0.3460 ca         1 3OE      -0.124500
     33 C24          1.3870     4.4200     2.8860 ca         1 3OE      -0.127000
     34 C26          2.4910     5.3420     0.9650 ca         1 3OE      -0.127000
     35 C25          1.9600     5.5060     2.2380 ca         1 3OE      -0.129000
     36 C4           9.5130     1.6500    -1.2880 cc         1 3OE      -0.107100
     37 C5           8.9410     1.9330    -0.0870 cd         1 3OE      -0.152000
     38 C6           7.9750     0.9670     0.3210 cd         1 3OE      -0.070300
     39 C7           7.1920     1.0690     1.5920 c3         1 3OE      -0.035800
     40 S3           8.8850     0.2030    -1.9480 ss         1 3OE      -0.089800
     41 C1           7.8450    -0.0390    -0.5970 cc         1 3OE      -0.112400
     42 C2           6.9200    -1.2140    -0.5470 c3         1 3OE       0.173300
     43 N29          5.5370    -0.8120    -0.7070 ns         1 3OE      -0.563900
     44 H34         -3.8080    -0.8780     2.7290 ha         1 3OE       0.141500
     45 H33         -6.0340     0.0340     2.2740 ha         1 3OE       0.145000
     46 H30         -3.3810    -1.8390    -1.4350 ha         1 3OE       0.141500
     47 H31         -5.5560    -0.9470    -1.8850 ha         1 3OE       0.145000
     48 H36         -7.0930     0.7490    -1.9650 h1         1 3OE       0.043200
     49 H36A        -7.8590    -0.8250    -1.6990 h1         1 3OE       0.043200
     50 H38        -10.1940    -0.9840    -1.2120 ha         1 3OE       0.133000
     51 H39        -12.3910     0.1120    -0.9870 ha         1 3OE       0.133500
     52 H40        -12.5330     2.5780    -0.8200 ha         1 3OE       0.132000
     53 H41        -10.4670     3.9370    -0.8910 ha         1 3OE       0.133500
     54 H42         -8.2740     2.8410    -1.1250 ha         1 3OE       0.133000
     55 HN18        -1.4590    -1.8320    -0.9170 hn         1 3OE       0.328500
     56 H17          0.3350    -2.7820     1.2200 h1         1 3OE       0.104700
     57 H19          0.1190    -3.8830    -1.6130 h1         1 3OE       0.039700
     58 HO20        -1.5200    -4.6400    -0.2360 ho         1 3OE       0.410000
     59 H43          1.9410    -4.6560     0.7240 hc         1 3OE       0.050033
     60 H43A         1.7410    -5.6040    -0.7550 hc         1 3OE       0.050033
     61 H43B         2.4390    -3.9970    -0.8360 hc         1 3OE       0.050033
     62 HN13         2.2610    -1.7600     1.1980 hn         1 3OE       0.341500
     63 H11          3.1070    -0.2920    -1.2110 h1         1 3OE       0.087700
     64 H12          3.3150     0.7540     1.6520 hc         1 3OE       0.056700
     65 H12A         4.0080     1.5090     0.2250 hc         1 3OE       0.056700
     66 H14          1.0250     1.0670     0.7210 hc         1 3OE       0.056200
     67 H14A         1.7020     1.7570    -0.7470 hc         1 3OE       0.056200
     68 H22          0.8920     2.3370     2.7730 ha         1 3OE       0.129500
     69 H23          2.8600     3.9810    -0.6490 ha         1 3OE       0.129500
     70 H24          0.9670     4.5400     3.8770 ha         1 3OE       0.130000
     71 H26          2.9360     6.1850     0.4500 ha         1 3OE       0.130000
     72 H25          1.9890     6.4750     2.7200 ha         1 3OE       0.130000
     73 H5           9.2030     2.8020     0.5030 ha         1 3OE       0.154000
     74 H7           6.3480     1.7550     1.4820 hc         1 3OE       0.048033
     75 H7A          6.7910     0.1070     1.9090 hc         1 3OE       0.048033
     76 H7B          7.8110     1.4530     2.4020 hc         1 3OE       0.048033
     77 H2           7.1840    -1.9450    -1.3140 h1         1 3OE       0.069200
     78 H2A          7.0090    -1.7260     0.4110 h1         1 3OE       0.069200
     79 HN29         5.3160    -0.2330    -1.5020 hn         1 3OE       0.319500
     80 H4          10.2730     2.2080    -1.8120 h4         1 3OE       0.170000
@<TRIPOS>BOND
     1     1     2 1   
     2     1     4 ar  
     3     1     6 ar  
     4     2     3 2   
     5     2    17 1   
     6     4     5 ar  
     7     4    44 1   
     8     5     8 ar  
     9     5    45 1   
    10     6     7 ar  
    11     6    46 1   
    12     7     8 ar  
    13     7    47 1   
    14     8     9 1   
    15     9    10 1   
    16    10    11 1   
    17    10    48 1   
    18    10    49 1   
    19    11    12 ar  
    20    11    16 ar  
    21    12    13 ar  
    22    12    50 1   
    23    13    14 ar  
    24    13    51 1   
    25    14    15 ar  
    26    14    52 1   
    27    15    16 ar  
    28    15    53 1   
    29    16    54 1   
    30    17    18 1   
    31    17    55 1   
    32    18    19 1   
    33    18    21 1   
    34    18    56 1   
    35    19    20 2   
    36    19    24 1   
    37    21    22 1   
    38    21    23 1   
    39    21    57 1   
    40    22    58 1   
    41    23    59 1   
    42    23    60 1   
    43    23    61 1   
    44    24    25 1   
    45    24    62 1   
    46    25    26 1   
    47    25    28 1   
    48    25    63 1   
    49    26    27 2   
    50    26    43 1   
    51    28    29 1   
    52    28    64 1   
    53    28    65 1   
    54    29    30 1   
    55    29    66 1   
    56    29    67 1   
    57    30    31 ar  
    58    30    32 ar  
    59    31    33 ar  
    60    31    68 1   
    61    32    34 ar  
    62    32    69 1   
    63    33    35 ar  
    64    33    70 1   
    65    34    35 ar  
    66    34    71 1   
    67    35    72 1   
    68    36    37 2   
    69    36    40 1   
    70    36    80 1   
    71    37    38 1   
    72    37    73 1   
    73    38    39 1   
    74    38    41 2   
    75    39    74 1   
    76    39    75 1   
    77    39    76 1   
    78    40    41 1   
    79    41    42 1   
    80    42    43 1   
    81    42    77 1   
    82    42    78 1   
    83    43    79 1   
@<TRIPOS>SUBSTRUCTURE
     1 3OE         1 TEMP              0 ****  ****    0 ROOT
