@<TRIPOS>MOLECULE
3OE
   80    83     1     0     0
SMALL
No Charge or Current Charge


@<TRIPOS>ATOM
      1 C8          -3.8150    -1.8520     0.6770 ca         1 3OE      -0.196600
      2 C27         -2.5040    -2.4990     1.0630 c          1 3OE       0.622700
      3 O28         -2.4220    -3.3290     1.9570 o          1 3OE      -0.598100
      4 C34         -4.9910    -2.2090     1.3720 ca         1 3OE      -0.029500
      5 C33         -6.2250    -1.6260     1.0380 ca         1 3OE      -0.188000
      6 C30         -3.9070    -0.8940    -0.3620 ca         1 3OE      -0.029500
      7 C31         -5.1440    -0.3130    -0.6920 ca         1 3OE      -0.188000
      8 C32         -6.3110    -0.6790     0.0100 ca         1 3OE       0.171100
      9 O35         -7.5500    -0.1420    -0.2710 os         1 3OE      -0.337100
     10 C36         -7.7450     0.8360    -1.3060 c3         1 3OE       0.210900
     11 C37         -9.2210     1.2090    -1.3460 ca         1 3OE      -0.100300
     12 C38        -10.1140     0.4920    -2.1660 ca         1 3OE      -0.083000
     13 C39        -11.4760     0.8380    -2.2030 ca         1 3OE      -0.114500
     14 C40        -11.9540     1.9020    -1.4200 ca         1 3OE      -0.096000
     15 C41        -11.0680     2.6200    -0.5980 ca         1 3OE      -0.114500
     16 C42         -9.7060     2.2740    -0.5610 ca         1 3OE      -0.083000
     17 N18         -1.3870    -2.1240     0.3530 ns         1 3OE      -0.508900
     18 C17          0.0060    -2.5970     0.5930 c3         1 3OE      -0.010300
     19 C15          0.9850    -1.6090    -0.0960 c          1 3OE       0.591100
     20 O16          0.6860    -0.9820    -1.1050 o          1 3OE      -0.619100
     21 C19          0.2100    -4.0620     0.0920 c3         1 3OE       0.173300
     22 O20         -0.5480    -4.9550     0.9140 oh         1 3OE      -0.648000
     23 C43          1.6730    -4.5570     0.0920 c3         1 3OE      -0.094100
     24 N13          2.2090    -1.4550     0.5220 ns         1 3OE      -0.484900
     25 C11          3.2990    -0.5680     0.0510 c3         1 3OE       0.025700
     26 C9           4.6760    -1.2690     0.2410 c          1 3OE       0.590100
     27 O10          4.8220    -2.2970     0.8930 o          1 3OE      -0.607100
     28 C12          3.2630     0.8080     0.7720 c3         1 3OE      -0.086400
     29 C14          1.9720     1.6260     0.5440 c3         1 3OE      -0.030100
     30 C21          2.0530     3.0020     1.1900 ca         1 3OE      -0.082300
     31 C22          1.6210     3.1910     2.5180 ca         1 3OE      -0.106500
     32 C23          2.5710     4.0960     0.4690 ca         1 3OE      -0.106500
     33 C24          1.7030     4.4600     3.1170 ca         1 3OE      -0.109000
     34 C26          2.6530     5.3650     1.0690 ca         1 3OE      -0.109000
     35 C25          2.2180     5.5480     2.3920 ca         1 3OE      -0.111000
     36 C4           9.7030     1.1920    -2.2580 cc         1 3OE      -0.234000
     37 C5           9.2830     1.8770    -1.1480 cd         1 3OE      -0.134000
     38 C6           8.3470     1.1700    -0.3400 cd         1 3OE      -0.070300
     39 C7           7.7580     1.7430     0.9250 c3         1 3OE      -0.035800
     40 S3           8.9400    -0.3860    -2.3450 ss         1 3OE       0.200000
     41 C1           8.0540    -0.0730    -0.8540 cc         1 3OE      -0.257300
     42 C2           7.1170    -1.1070    -0.2980 c3         1 3OE       0.173300
     43 N29          5.7360    -0.6530    -0.3820 ns         1 3OE      -0.496900
     44 H34         -4.9550    -2.9420     2.1760 ha         1 3OE       0.123500
     45 H33         -7.1220    -1.9100     1.5820 ha         1 3OE       0.127000
     46 H30         -3.0300    -0.5850    -0.9270 ha         1 3OE       0.123500
     47 H31         -5.1760     0.4180    -1.4950 ha         1 3OE       0.127000
     48 H36         -7.1450     1.7340    -1.1080 h1         1 3OE       0.043200
     49 H36A        -7.4440     0.4320    -2.2820 h1         1 3OE       0.043200
     50 H38         -9.7520    -0.3350    -2.7740 ha         1 3OE       0.115000
     51 H39        -12.1610     0.2800    -2.8390 ha         1 3OE       0.115500
     52 H40        -13.0080     2.1690    -1.4490 ha         1 3OE       0.114000
     53 H41        -11.4370     3.4430     0.0100 ha         1 3OE       0.115500
     54 H42         -9.0270     2.8340     0.0800 ha         1 3OE       0.115000
     55 HN18        -1.5260    -1.4400    -0.3820 hn         1 3OE       0.328500
     56 H17          0.2140    -2.5530     1.6710 h1         1 3OE       0.104700
     57 H19         -0.1570    -4.1170    -0.9420 h1         1 3OE       0.039700
     58 HO20        -1.2670    -4.4070     1.3270 ho         1 3OE       0.449000
     59 H43          2.1240    -4.4560     1.0870 hc         1 3OE       0.050033
     60 H43A         1.7180    -5.6150    -0.1960 hc         1 3OE       0.050033
     61 H43B         2.2810    -3.9970    -0.6280 hc         1 3OE       0.050033
     62 HN13         2.3880    -2.0280     1.3400 hn         1 3OE       0.341500
     63 H11          3.1840    -0.4030    -1.0290 h1         1 3OE       0.087700
     64 H12          3.4040     0.6540     1.8490 hc         1 3OE       0.056700
     65 H12A         4.1120     1.4130     0.4310 hc         1 3OE       0.056700
     66 H14          1.1120     1.0780     0.9480 hc         1 3OE       0.056200
     67 H14A         1.7930     1.7270    -0.5340 hc         1 3OE       0.056200
     68 H22          1.2240     2.3530     3.0870 ha         1 3OE       0.111500
     69 H23          2.9120     3.9630    -0.5550 ha         1 3OE       0.111500
     70 H24          1.3670     4.5990     4.1420 ha         1 3OE       0.112000
     71 H26          3.0540     6.2070     0.5070 ha         1 3OE       0.112000
     72 H25          2.2820     6.5300     2.8560 ha         1 3OE       0.112000
     73 H5           9.6360     2.8750    -0.9070 ha         1 3OE       0.136000
     74 H7           6.7080     2.0190     0.7790 hc         1 3OE       0.048033
     75 H7A          7.8050     1.0180     1.7470 hc         1 3OE       0.048033
     76 H7B          8.2970     2.6420     1.2470 hc         1 3OE       0.048033
     77 H2           7.2180    -2.0480    -0.8550 h1         1 3OE       0.069200
     78 H2A          7.3710    -1.3040     0.7530 h1         1 3OE       0.069200
     79 HN29         5.5450     0.1910    -0.9070 hn         1 3OE       0.319500
     80 H4          10.4000     1.4940    -3.0290 h4         1 3OE       0.152000
@<TRIPOS>BOND
     1     1     2 1   
     2     1     4 ar  
     3     1     6 ar  
     4     2     3 2   
     5     2    17 1   
     6     4     5 ar  
     7     4    44 1   
     8     5     8 ar  
     9     5    45 1   
    10     6     7 ar  
    11     6    46 1   
    12     7     8 ar  
    13     7    47 1   
    14     8     9 1   
    15     9    10 1   
    16    10    11 1   
    17    10    48 1   
    18    10    49 1   
    19    11    12 ar  
    20    11    16 ar  
    21    12    13 ar  
    22    12    50 1   
    23    13    14 ar  
    24    13    51 1   
    25    14    15 ar  
    26    14    52 1   
    27    15    16 ar  
    28    15    53 1   
    29    16    54 1   
    30    17    18 1   
    31    17    55 1   
    32    18    19 1   
    33    18    21 1   
    34    18    56 1   
    35    19    20 2   
    36    19    24 1   
    37    21    22 1   
    38    21    23 1   
    39    21    57 1   
    40    22    58 1   
    41    23    59 1   
    42    23    60 1   
    43    23    61 1   
    44    24    25 1   
    45    24    62 1   
    46    25    26 1   
    47    25    28 1   
    48    25    63 1   
    49    26    27 2   
    50    26    43 1   
    51    28    29 1   
    52    28    64 1   
    53    28    65 1   
    54    29    30 1   
    55    29    66 1   
    56    29    67 1   
    57    30    31 ar  
    58    30    32 ar  
    59    31    33 ar  
    60    31    68 1   
    61    32    34 ar  
    62    32    69 1   
    63    33    35 ar  
    64    33    70 1   
    65    34    35 ar  
    66    34    71 1   
    67    35    72 1   
    68    36    37 2   
    69    36    40 1   
    70    36    80 1   
    71    37    38 1   
    72    37    73 1   
    73    38    39 1   
    74    38    41 2   
    75    39    74 1   
    76    39    75 1   
    77    39    76 1   
    78    40    41 1   
    79    41    42 1   
    80    42    43 1   
    81    42    77 1   
    82    42    78 1   
    83    43    79 1   
@<TRIPOS>SUBSTRUCTURE
     1 3OE         1 TEMP              0 ****  ****    0 ROOT
