@<TRIPOS>MOLECULE
3OG
   54    54     1     0     0
SMALL
abcg2


@<TRIPOS>ATOM
      1 OAA          2.6830    -2.6770    -1.4420 o          1 3OG      -0.483000
      2 OAB          2.3850    -1.6550     0.5340 os         1 3OG      -0.462100
      3 CAC          2.5220    -2.7260    -0.2490 c          1 3OG       0.598100
      4 CAD          2.4130    -3.9910     0.5480 c3         1 3OG      -0.157100
      5 CAE          6.1150     0.5240     0.4770 c6         1 3OG      -0.074400
      6 CAF          4.9290    -0.3930     0.2370 c6         1 3OG      -0.116400
      7 CAG          3.6440     0.3700     0.4920 c6         1 3OG       0.189300
      8 CAH          2.3840    -0.3340    -0.0230 c3         1 3OG       0.172300
      9 CAI          1.0950     0.3450     0.4120 c3         1 3OG      -0.081400
     10 CAJ         -0.1590    -0.2680    -0.1980 c3         1 3OG      -0.072400
     11 CAK         -1.4290     0.4000     0.3140 c3         1 3OG      -0.075400
     12 CAL         -2.7030    -0.1710    -0.2950 c3         1 3OG      -0.073400
     13 CAM         -3.9660     0.4670     0.2680 c3         1 3OG      -0.074400
     14 CAN         -5.2510    -0.0940    -0.3290 c3         1 3OG      -0.073400
     15 CAO         -6.5060     0.5360     0.2610 c3         1 3OG      -0.074400
     16 CAP         -7.7980    -0.0230    -0.3210 c3         1 3OG      -0.075400
     17 CAQ         -9.0490     0.6050     0.2810 c3         1 3OG      -0.075400
     18 CAR        -10.3380     0.0420    -0.2990 c3         1 3OG      -0.088100
     19 CAS          6.0430     1.6800    -0.5020 c6         1 3OG      -0.191400
     20 CAT          4.6880     2.3290    -0.5780 c          1 3OG       0.677100
     21 OAU          3.6220     1.6630    -0.1370 os         1 3OG      -0.468100
     22 OAV          4.5070     3.4230    -1.0500 o          1 3OG      -0.502000
     23 HAD          1.3590    -4.2040     0.7410 hc         1 3OG       0.070700
     24 HADA         2.8310    -4.8260    -0.0070 hc         1 3OG       0.070700
     25 HADB         2.9100    -3.9060     1.5120 hc         1 3OG       0.070700
     26 HAEA         7.0540    -0.0150     0.3490 hc         1 3OG       0.054200
     27 HAF          4.9560    -0.7800    -0.7860 hc         1 3OG       0.066200
     28 HAFA         4.9620    -1.2480     0.9130 hc         1 3OG       0.066200
     29 HAG          3.5450     0.5460     1.5700 h1         1 3OG       0.065700
     30 HAH          2.4370    -0.3850    -1.1140 h1         1 3OG       0.083700
     31 HAI          1.0310     0.3200     1.5060 hc         1 3OG       0.061700
     32 HAIA         1.1470     1.4000     0.1330 hc         1 3OG       0.061700
     33 HAJ         -0.1120    -0.1830    -1.2890 hc         1 3OG       0.041700
     34 HAJA        -0.2100    -1.3380     0.0260 hc         1 3OG       0.041700
     35 HAK         -1.4730     0.2980     1.4030 hc         1 3OG       0.038700
     36 HAKA        -1.3810     1.4770     0.1150 hc         1 3OG       0.038700
     37 HAL         -2.6790    -0.0380    -1.3830 hc         1 3OG       0.038200
     38 HALA        -2.7360    -1.2520    -0.1240 hc         1 3OG       0.038200
     39 HAM         -3.9840     0.3310     1.3550 hc         1 3OG       0.037200
     40 HAMA        -3.9320     1.5500     0.1020 hc         1 3OG       0.037200
     41 HAN         -5.2440     0.0530    -1.4140 hc         1 3OG       0.037200
     42 HANA        -5.2810    -1.1780    -0.1720 hc         1 3OG       0.037200
     43 HAO         -6.5060     0.3910     1.3470 hc         1 3OG       0.037200
     44 HAOA        -6.4760     1.6200     0.1030 hc         1 3OG       0.037200
     45 HAP         -7.8040     0.1260    -1.4060 hc         1 3OG       0.037200
     46 HAPA        -7.8280    -1.1080    -0.1660 hc         1 3OG       0.037200
     47 HAQ         -9.0400     0.4570     1.3660 hc         1 3OG       0.036200
     48 HAQA        -9.0190     1.6880     0.1250 hc         1 3OG       0.036200
     49 HAR        -10.4100    -1.0340    -0.1290 hc         1 3OG       0.031367
     50 HARA       -11.2170     0.5060     0.1490 hc         1 3OG       0.031367
     51 HARB       -10.3910     0.2060    -1.3780 hc         1 3OG       0.031367
     52 HAS          6.7740     2.4590    -0.2850 hc         1 3OG       0.079700
     53 HASA         6.2700     1.3230    -1.5130 hc         1 3OG       0.079700
     54 HAE          6.1010     0.8940     1.5060 hc         1 3OG       0.054200
@<TRIPOS>BOND
     1     1     3 2   
     2     2     3 1   
     3     2     8 1   
     4     3     4 1   
     5     4    23 1   
     6     4    24 1   
     7     4    25 1   
     8     5     6 1   
     9     5    19 1   
    10     5    26 1   
    11     5    54 1   
    12     6     7 1   
    13     6    27 1   
    14     6    28 1   
    15     7     8 1   
    16     7    21 1   
    17     7    29 1   
    18     8     9 1   
    19     8    30 1   
    20     9    10 1   
    21     9    31 1   
    22     9    32 1   
    23    10    11 1   
    24    10    33 1   
    25    10    34 1   
    26    11    12 1   
    27    11    35 1   
    28    11    36 1   
    29    12    13 1   
    30    12    37 1   
    31    12    38 1   
    32    13    14 1   
    33    13    39 1   
    34    13    40 1   
    35    14    15 1   
    36    14    41 1   
    37    14    42 1   
    38    15    16 1   
    39    15    43 1   
    40    15    44 1   
    41    16    17 1   
    42    16    45 1   
    43    16    46 1   
    44    17    18 1   
    45    17    47 1   
    46    17    48 1   
    47    18    49 1   
    48    18    50 1   
    49    18    51 1   
    50    19    20 1   
    51    19    52 1   
    52    19    53 1   
    53    20    21 1   
    54    20    22 2   
@<TRIPOS>SUBSTRUCTURE
     1 3OG         1 TEMP              0 ****  ****    0 ROOT
