@<TRIPOS>MOLECULE
3OG
   54    54     1     0     0
SMALL
No Charge or Current Charge


@<TRIPOS>ATOM
      1 OAA          3.1490    -2.7380    -1.4080 o          1 3OG      -0.483000
      2 OAB          2.3340    -1.7120     0.4850 os         1 3OG      -0.462100
      3 CAC          2.7530    -2.7900    -0.2520 c          1 3OG       0.598100
      4 CAD          2.6290    -4.0830     0.5380 c3         1 3OG      -0.157100
      5 CAE          6.2380     0.4300     0.3480 c6         1 3OG      -0.074400
      6 CAF          5.0130    -0.4070    -0.0540 c6         1 3OG      -0.116400
      7 CAG          3.7140     0.3350     0.3450 c6         1 3OG       0.189300
      8 CAH          2.3890    -0.3860    -0.0940 c3         1 3OG       0.172300
      9 CAI          1.0980     0.3400     0.3660 c3         1 3OG      -0.081400
     10 CAJ         -0.2090    -0.3360    -0.1170 c3         1 3OG      -0.072400
     11 CAK         -1.4780     0.4330     0.3110 c3         1 3OG      -0.075400
     12 CAL         -2.7830    -0.2410    -0.1690 c3         1 3OG      -0.073400
     13 CAM         -4.0520     0.5270     0.2590 c3         1 3OG      -0.074400
     14 CAN         -5.3570    -0.1460    -0.2210 c3         1 3OG      -0.073400
     15 CAO         -6.6260     0.6220     0.2080 c3         1 3OG      -0.074400
     16 CAP         -7.9310    -0.0510    -0.2730 c3         1 3OG      -0.075400
     17 CAQ         -9.2000     0.7170     0.1560 c3         1 3OG      -0.075400
     18 CAR        -10.5020     0.0450    -0.3230 c3         1 3OG      -0.088100
     19 CAS          6.1570     1.8060    -0.3400 c6         1 3OG      -0.191400
     20 CAT          4.7870     2.4960    -0.2240 c          1 3OG       0.677100
     21 OAU          3.6810     1.6810    -0.1940 os         1 3OG      -0.468100
     22 OAV          4.6850     3.7130    -0.1830 o          1 3OG      -0.502000
     23 HAD          1.6000    -4.1740     0.9040 hc         1 3OG       0.070700
     24 HADA         2.9370    -4.9620    -0.0390 hc         1 3OG       0.070700
     25 HADB         3.1980    -3.9830     1.4680 hc         1 3OG       0.070700
     26 HAEA         7.1660    -0.0850     0.0620 hc         1 3OG       0.054200
     27 HAF          5.0220    -0.6040    -1.1350 hc         1 3OG       0.066200
     28 HAFA         5.0630    -1.3810     0.4500 hc         1 3OG       0.066200
     29 HAG          3.6980     0.4190     1.4420 h1         1 3OG       0.065700
     30 HAH          2.3710    -0.4230    -1.1910 h1         1 3OG       0.083700
     31 HAI          1.0920     0.4040     1.4610 hc         1 3OG       0.061700
     32 HAIA         1.1140     1.3700    -0.0090 hc         1 3OG       0.061700
     33 HAJ         -0.1890    -0.4170    -1.2110 hc         1 3OG       0.041700
     34 HAJA        -0.2630    -1.3580     0.2780 hc         1 3OG       0.041700
     35 HAK         -1.4970     0.5150     1.4050 hc         1 3OG       0.038700
     36 HAKA        -1.4330     1.4540    -0.0870 hc         1 3OG       0.038700
     37 HAL         -2.7640    -0.3230    -1.2630 hc         1 3OG       0.038200
     38 HALA        -2.8280    -1.2620     0.2290 hc         1 3OG       0.038200
     39 HAM         -4.0710     0.6100     1.3530 hc         1 3OG       0.037200
     40 HAMA        -4.0070     1.5490    -0.1380 hc         1 3OG       0.037200
     41 HAN         -5.3380    -0.2280    -1.3150 hc         1 3OG       0.037200
     42 HANA        -5.4020    -1.1680     0.1770 hc         1 3OG       0.037200
     43 HAO         -6.6450     0.7040     1.3020 hc         1 3OG       0.037200
     44 HAOA        -6.5810     1.6440    -0.1900 hc         1 3OG       0.037200
     45 HAP         -7.9120    -0.1340    -1.3670 hc         1 3OG       0.037200
     46 HAPA        -7.9770    -1.0730     0.1250 hc         1 3OG       0.037200
     47 HAQ         -9.2240     0.7990     1.2500 hc         1 3OG       0.036200
     48 HAQA        -9.1590     1.7380    -0.2420 hc         1 3OG       0.036200
     49 HAR        -10.5900    -0.9680     0.0870 hc         1 3OG       0.031367
     50 HARA       -11.3740     0.6250     0.0040 hc         1 3OG       0.031367
     51 HARB       -10.5250    -0.0200    -1.4180 hc         1 3OG       0.031367
     52 HAS          6.9520     2.4950    -0.0270 hc         1 3OG       0.079700
     53 HASA         6.2940     1.6270    -1.4140 hc         1 3OG       0.079700
     54 HAE          6.2680     0.5570     1.4400 hc         1 3OG       0.054200
@<TRIPOS>BOND
     1     1     3 2   
     2     2     3 1   
     3     2     8 1   
     4     3     4 1   
     5     4    23 1   
     6     4    24 1   
     7     4    25 1   
     8     5     6 1   
     9     5    19 1   
    10     5    26 1   
    11     5    54 1   
    12     6     7 1   
    13     6    27 1   
    14     6    28 1   
    15     7     8 1   
    16     7    21 1   
    17     7    29 1   
    18     8     9 1   
    19     8    30 1   
    20     9    10 1   
    21     9    31 1   
    22     9    32 1   
    23    10    11 1   
    24    10    33 1   
    25    10    34 1   
    26    11    12 1   
    27    11    35 1   
    28    11    36 1   
    29    12    13 1   
    30    12    37 1   
    31    12    38 1   
    32    13    14 1   
    33    13    39 1   
    34    13    40 1   
    35    14    15 1   
    36    14    41 1   
    37    14    42 1   
    38    15    16 1   
    39    15    43 1   
    40    15    44 1   
    41    16    17 1   
    42    16    45 1   
    43    16    46 1   
    44    17    18 1   
    45    17    47 1   
    46    17    48 1   
    47    18    49 1   
    48    18    50 1   
    49    18    51 1   
    50    19    20 1   
    51    19    52 1   
    52    19    53 1   
    53    20    21 1   
    54    20    22 2   
@<TRIPOS>SUBSTRUCTURE
     1 3OG         1 TEMP              0 ****  ****    0 ROOT
