@<TRIPOS>MOLECULE
3OH
   11    10     1     0     0
SMALL
abcg2


@<TRIPOS>ATOM
      1 C1           0.0520    -0.0160    -1.1230 c          1 3OH       0.719000
      2 O1           1.2960    -0.0410    -1.2010 o          1 3OH      -0.742500
      3 O2          -0.7510    -0.0110    -2.0780 o          1 3OH      -0.742500
      4 C2          -0.5730     0.0120     0.2840 c3         1 3OH      -0.213400
      5 C3           0.4290    -0.0030     1.4180 c3         1 3OH       0.169600
      6 O3          -0.2750     0.0340     2.6490 oh         1 3OH      -0.692000
      7 H21         -1.2510    -0.8430     0.3790 hc         1 3OH       0.028200
      8 H22         -1.2080     0.9010     0.3630 hc         1 3OH       0.028200
      9 H31          1.1040     0.8570     1.3260 h1         1 3OH       0.018200
     10 H32          1.0540    -0.9010     1.3480 h1         1 3OH       0.018200
     11 HO3          0.3710     0.0190     3.3600 ho         1 3OH       0.409000
@<TRIPOS>BOND
     1     1     2 1   
     2     1     3 1   
     3     1     4 1   
     4     4     5 1   
     5     4     7 1   
     6     4     8 1   
     7     5     6 1   
     8     5     9 1   
     9     5    10 1   
    10     6    11 1   
@<TRIPOS>SUBSTRUCTURE
     1 3OH         1 TEMP              0 ****  ****    0 ROOT
