@<TRIPOS>MOLECULE
3OH
   11    10     1     0     0
SMALL
No Charge or Current Charge


@<TRIPOS>ATOM
      1 C1           0.0740     0.0270    -1.0860 c          1 3OH       0.719000
      2 O1           0.7760     0.9100    -1.5560 o          1 3OH      -0.742500
      3 O2          -0.0810    -1.0650    -1.6130 o          1 3OH      -0.742500
      4 C2          -0.6010     0.2810     0.2640 c3         1 3OH      -0.213400
      5 C3           0.3540    -0.1650     1.3810 c3         1 3OH       0.169600
      6 O3          -0.2610     0.0650     2.6530 oh         1 3OH      -0.692000
      7 H21         -1.5040    -0.3340     0.3670 hc         1 3OH       0.028200
      8 H22         -0.7710     1.3550     0.4150 hc         1 3OH       0.028200
      9 H31          1.2940     0.3980     1.3050 h1         1 3OH       0.018200
     10 H32          0.5870    -1.2320     1.2590 h1         1 3OH       0.018200
     11 HO3          0.3810    -0.2320     3.3350 ho         1 3OH       0.409000
@<TRIPOS>BOND
     1     1     2 1   
     2     1     3 1   
     3     1     4 1   
     4     4     5 1   
     5     4     7 1   
     6     4     8 1   
     7     5     6 1   
     8     5     9 1   
     9     5    10 1   
    10     6    11 1   
@<TRIPOS>SUBSTRUCTURE
     1 3OH         1 TEMP              0 ****  ****    0 ROOT
