@<TRIPOS>MOLECULE
3OK
   46    48     1     0     0
SMALL
abcg2


@<TRIPOS>ATOM
      1 NAS          5.7710     3.7330    -0.0660 n8         1 3OK      -1.000200
      2 CAO          5.0170     2.5030     0.0870 c3         1 3OK       0.135800
      3 CAQ          3.5280     2.8090     0.0320 c3         1 3OK       0.226800
      4 NAU          2.7720     1.5820     0.1330 nu         1 3OK      -0.807200
      5 CAY          1.4330     1.4960     0.1050 ca         1 3OK       0.372500
      6 CAI          0.6730     2.7030     0.0720 ca         1 3OK      -0.124000
      7 CBE          0.7180     0.2770     0.1100 ca         1 3OK      -0.212100
      8 CAJ         -0.6790     2.7020     0.0500 ca         1 3OK      -0.124000
      9 CBA          1.4380    -0.9720     0.1410 c          1 3OK       0.625300
     10 OAA          2.6910    -1.0110     0.1700 o          1 3OK      -0.646600
     11 CBF         -0.7230     0.2760     0.0790 ca         1 3OK      -0.212100
     12 CBC          0.7040    -2.2330     0.1410 ca         1 3OK      -0.209100
     13 CAZ         -1.4390     1.4950     0.0490 ca         1 3OK       0.372500
     14 CBB         -1.4420    -0.9730     0.0820 c          1 3OK       0.625300
     15 OAB         -2.6960    -1.0130     0.0550 o          1 3OK      -0.646600
     16 CAW          1.4060    -3.4450     0.1700 ca         1 3OK       0.176600
     17 NAV         -2.7770     1.5790     0.0170 nu         1 3OK      -0.807200
     18 OAE          2.7370    -3.5170     0.1990 oh         1 3OK      -0.554100
     19 CAG          0.6840    -4.6460     0.1690 ca         1 3OK      -0.105500
     20 CAR         -3.5340     2.8080     0.0690 c3         1 3OK       0.226800
     21 CAH         -0.6880    -4.6470     0.1400 ca         1 3OK      -0.105500
     22 CAP         -5.0230     2.5010     0.0080 c3         1 3OK       0.135800
     23 CAX         -1.4100    -3.4460     0.1120 ca         1 3OK       0.176600
     24 NAT         -5.7780     3.7350     0.1240 n8         1 3OK      -1.000200
     25 OAF         -2.7400    -3.5180     0.0860 oh         1 3OK      -0.554100
     26 CBD         -0.7080    -2.2330     0.1130 ca         1 3OK      -0.209100
     27 H1           6.7450     3.5630     0.1470 hn         1 3OK       0.399750
     28 H2           5.7480     4.0310    -1.0330 hn         1 3OK       0.399750
     29 H4           5.2550     1.7350    -0.6620 h1         1 3OK       0.040200
     30 H5           5.2510     2.0720     1.0630 h1         1 3OK       0.040200
     31 H6           3.2810     3.4940     0.8480 h1         1 3OK       0.047700
     32 H7           3.2930     3.3270    -0.9060 h1         1 3OK       0.047700
     33 H8           3.2690     0.7020     0.1330 hn         1 3OK       0.372500
     34 H9           1.1850     3.6550     0.0680 ha         1 3OK       0.121500
     35 H10         -1.1920     3.6540     0.0290 ha         1 3OK       0.121500
     36 H13         -3.2730     0.6980     0.0410 hn         1 3OK       0.372500
     37 H14          3.0620    -2.5810     0.1960 ho         1 3OK       0.518500
     38 H15          1.2260    -5.5830     0.1920 ha         1 3OK       0.134000
     39 H16         -3.3100     3.3580     0.9910 h1         1 3OK       0.047700
     40 H17         -3.2770     3.4660    -0.7670 h1         1 3OK       0.047700
     41 H18         -1.2290    -5.5840     0.1400 ha         1 3OK       0.134000
     42 H19         -5.2500     2.0450    -0.9580 h1         1 3OK       0.040200
     43 H20         -5.2680     1.7530     0.7760 h1         1 3OK       0.040200
     44 H21         -6.7500     3.5580    -0.0910 hn         1 3OK       0.399750
     45 H22         -5.7620     4.0560     1.0840 hn         1 3OK       0.399750
     46 H24         -3.0650    -2.5830     0.0680 ho         1 3OK       0.518500
@<TRIPOS>BOND
     1     1     2 1   
     2     1    27 1   
     3     1    28 1   
     4     2     3 1   
     5     2    29 1   
     6     2    30 1   
     7     3     4 1   
     8     3    31 1   
     9     3    32 1   
    10     4     5 1   
    11     4    33 1   
    12     5     6 ar  
    13     5     7 ar  
    14     6     8 ar  
    15     6    34 1   
    16     7     9 1   
    17     7    11 ar  
    18     8    13 ar  
    19     8    35 1   
    20     9    10 2   
    21     9    12 1   
    22    11    13 ar  
    23    11    14 1   
    24    12    16 ar  
    25    12    26 ar  
    26    13    17 1   
    27    14    15 2   
    28    14    26 1   
    29    16    18 1   
    30    16    19 ar  
    31    17    20 1   
    32    17    36 1   
    33    18    37 1   
    34    19    21 ar  
    35    19    38 1   
    36    20    22 1   
    37    20    39 1   
    38    20    40 1   
    39    21    23 ar  
    40    21    41 1   
    41    22    24 1   
    42    22    42 1   
    43    22    43 1   
    44    23    25 1   
    45    23    26 ar  
    46    24    44 1   
    47    24    45 1   
    48    25    46 1   
@<TRIPOS>SUBSTRUCTURE
     1 3OK         1 TEMP              0 ****  ****    0 ROOT
