@<TRIPOS>MOLECULE
3OK
   46    48     1     0     0
SMALL
No Charge or Current Charge


@<TRIPOS>ATOM
      1 NAS          6.1210     3.3900    -0.4760 n8         1 3OK      -1.000200
      2 CAO          5.1660     2.4180     0.1220 c3         1 3OK       0.135800
      3 CAQ          3.6710     2.7710    -0.1260 c3         1 3OK       0.226800
      4 NAU          2.7760     1.7650     0.4750 nu         1 3OK      -0.807200
      5 CAY          1.3890     1.6870     0.3360 ca         1 3OK       0.372500
      6 CAI          0.6710     2.8820     0.1940 ca         1 3OK      -0.124000
      7 CBE          0.6980     0.4410     0.3330 ca         1 3OK      -0.212100
      8 CAJ         -0.7170     2.8700     0.0400 ca         1 3OK      -0.124000
      9 CBA          1.4590    -0.8650     0.4900 c          1 3OK       0.625300
     10 OAA          2.6460    -0.9020     0.8110 o          1 3OK      -0.646600
     11 CBF         -0.7290     0.4270     0.1700 ca         1 3OK      -0.212100
     12 CBC          0.7270    -2.1690     0.2630 ca         1 3OK      -0.209100
     13 CAZ         -1.4290     1.6610     0.0270 ca         1 3OK       0.372500
     14 CBB         -1.4780    -0.8960     0.1450 c          1 3OK       0.625300
     15 OAB         -2.7060    -0.9600     0.1730 o          1 3OK      -0.646600
     16 CAW          1.4400    -3.3970     0.2230 ca         1 3OK       0.176600
     17 NAV         -2.8150     1.7080    -0.1450 nu         1 3OK      -0.807200
     18 OAE          2.7910    -3.4320     0.3890 oh         1 3OK      -0.554100
     19 CAG          0.7710    -4.6090     0.0130 ca         1 3OK      -0.105500
     20 CAR         -3.7160     2.8450     0.1250 c3         1 3OK       0.226800
     21 CAH         -0.6180    -4.6240    -0.1510 ca         1 3OK      -0.105500
     22 CAP         -5.2070     2.4380    -0.0540 c3         1 3OK       0.135800
     23 CAX         -1.3430    -3.4280    -0.1050 ca         1 3OK       0.176600
     24 NAT         -6.1670     3.5420     0.2180 n8         1 3OK      -1.000200
     25 OAF         -2.6940    -3.4910    -0.2570 oh         1 3OK      -0.554100
     26 CBD         -0.6850    -2.1840     0.0970 ca         1 3OK      -0.209100
     27 H1           7.0820     3.0700    -0.2970 hn         1 3OK       0.399750
     28 H2           6.0460     3.3520    -1.5010 hn         1 3OK       0.399750
     29 H4           5.3760     1.4220    -0.2940 h1         1 3OK       0.040200
     30 H5           5.3470     2.3780     1.2060 h1         1 3OK       0.040200
     31 H6           3.4660     3.7630     0.2980 h1         1 3OK       0.047700
     32 H7           3.4920     2.8220    -1.2090 h1         1 3OK       0.047700
     33 H8           3.2010     0.8580     0.6780 hn         1 3OK       0.372500
     34 H9           1.1860     3.8380     0.2050 ha         1 3OK       0.121500
     35 H10         -1.2350     3.8170    -0.0760 ha         1 3OK       0.121500
     36 H13         -3.2470     0.7820    -0.1310 hn         1 3OK       0.372500
     37 H14          3.0540    -2.4930     0.5950 ho         1 3OK       0.518500
     38 H15          1.3320    -5.5400    -0.0180 ha         1 3OK       0.134000
     39 H16         -3.5640     3.2000     1.1530 h1         1 3OK       0.047700
     40 H17         -3.4890     3.6750    -0.5580 h1         1 3OK       0.047700
     41 H18         -1.1360    -5.5670    -0.3090 ha         1 3OK       0.134000
     42 H19         -5.3600     2.0940    -1.0870 h1         1 3OK       0.040200
     43 H20         -5.4370     1.6020     0.6200 h1         1 3OK       0.040200
     44 H21         -7.1270     3.1870     0.1100 hn         1 3OK       0.399750
     45 H22         -6.1190     3.7960     1.2130 hn         1 3OK       0.399750
     46 H24         -3.0180    -2.5590    -0.1230 ho         1 3OK       0.518500
@<TRIPOS>BOND
     1     1     2 1   
     2     1    27 1   
     3     1    28 1   
     4     2     3 1   
     5     2    29 1   
     6     2    30 1   
     7     3     4 1   
     8     3    31 1   
     9     3    32 1   
    10     4     5 1   
    11     4    33 1   
    12     5     6 ar  
    13     5     7 ar  
    14     6     8 ar  
    15     6    34 1   
    16     7     9 1   
    17     7    11 ar  
    18     8    13 ar  
    19     8    35 1   
    20     9    10 2   
    21     9    12 1   
    22    11    13 ar  
    23    11    14 1   
    24    12    16 ar  
    25    12    26 ar  
    26    13    17 1   
    27    14    15 2   
    28    14    26 1   
    29    16    18 1   
    30    16    19 ar  
    31    17    20 1   
    32    17    36 1   
    33    18    37 1   
    34    19    21 ar  
    35    19    38 1   
    36    20    22 1   
    37    20    39 1   
    38    20    40 1   
    39    21    23 ar  
    40    21    41 1   
    41    22    24 1   
    42    22    42 1   
    43    22    43 1   
    44    23    25 1   
    45    23    26 ar  
    46    24    44 1   
    47    24    45 1   
    48    25    46 1   
@<TRIPOS>SUBSTRUCTURE
     1 3OK         1 TEMP              0 ****  ****    0 ROOT
