@<TRIPOS>MOLECULE
3OL
   25    24     1     0     0
SMALL
No Charge or Current Charge


@<TRIPOS>ATOM
      1 C1           4.1300    -0.8160    -0.1580 c2         1 3OL      -0.295000
      2 C2           2.9580    -0.5850     0.4570 c2         1 3OL      -0.254200
      3 C3           1.7660     0.1060    -0.1630 c3         1 3OL       0.199500
      4 O1           1.9160     1.5020     0.0770 oh         1 3OL      -0.652000
      5 C4           0.4230    -0.3910     0.4230 c3         1 3OL      -0.106400
      6 C5          -0.8260     0.1860    -0.2860 c3         1 3OL      -0.072400
      7 C6          -2.1520    -0.3580     0.2910 c3         1 3OL      -0.076400
      8 C7          -3.4000     0.2150    -0.4160 c3         1 3OL      -0.075400
      9 C8          -4.7220    -0.3280     0.1590 c3         1 3OL      -0.088100
     10 H11          4.9530    -1.3200     0.3520 ha         1 3OL       0.163500
     11 H12          4.3100    -0.5130    -1.1920 ha         1 3OL       0.163500
     12 H21          2.8090    -0.9000     1.4920 ha         1 3OL       0.166000
     13 H31          1.7660    -0.0960    -1.2450 h1         1 3OL       0.072700
     14 HO1          2.8680     1.6950    -0.0580 ho         1 3OL       0.437000
     15 H41          0.3950    -1.4850     0.3460 hc         1 3OL       0.043200
     16 H42          0.3790    -0.1480     1.4920 hc         1 3OL       0.043200
     17 H51         -0.8220     1.2800    -0.2010 hc         1 3OL       0.044700
     18 H52         -0.7750    -0.0520    -1.3560 hc         1 3OL       0.044700
     19 H61         -2.1610    -1.4520     0.2040 hc         1 3OL       0.036200
     20 H62         -2.2040    -0.1210     1.3610 hc         1 3OL       0.036200
     21 H71         -3.3960     1.3090    -0.3300 hc         1 3OL       0.037700
     22 H72         -3.3530    -0.0220    -1.4860 hc         1 3OL       0.037700
     23 H81         -5.5770     0.1070    -0.3720 hc         1 3OL       0.031700
     24 H82         -4.7720    -1.4180     0.0560 hc         1 3OL       0.031700
     25 H83         -4.8150    -0.0760     1.2230 hc         1 3OL       0.031700
@<TRIPOS>BOND
     1     1     2 2   
     2     1    10 1   
     3     1    11 1   
     4     2     3 1   
     5     2    12 1   
     6     3     4 1   
     7     3     5 1   
     8     3    13 1   
     9     4    14 1   
    10     5     6 1   
    11     5    15 1   
    12     5    16 1   
    13     6     7 1   
    14     6    17 1   
    15     6    18 1   
    16     7     8 1   
    17     7    19 1   
    18     7    20 1   
    19     8     9 1   
    20     8    21 1   
    21     8    22 1   
    22     9    23 1   
    23     9    24 1   
    24     9    25 1   
@<TRIPOS>SUBSTRUCTURE
     1 3OL         1 TEMP              0 ****  ****    0 ROOT
