@<TRIPOS>MOLECULE
3OL
   25    24     1     0     0
SMALL
abcg2


@<TRIPOS>ATOM
      1 C1           3.8680    -1.1490    -0.2890 c2         1 3OL      -0.295000
      2 C2           2.9950    -0.4240     0.3980 c2         1 3OL      -0.254200
      3 C3           1.8030     0.2630    -0.2050 c3         1 3OL       0.199500
      4 O1           1.8760     1.6650    -0.0090 oh         1 3OL      -0.652000
      5 C4           0.5020    -0.3280     0.3340 c3         1 3OL      -0.106400
      6 C5          -0.7540     0.2760    -0.2830 c3         1 3OL      -0.072400
      7 C6          -2.0320    -0.3620     0.2460 c3         1 3OL      -0.076400
      8 C7          -3.2950     0.2200    -0.3760 c3         1 3OL      -0.075400
      9 C8          -4.5690    -0.4180     0.1610 c3         1 3OL      -0.088100
     10 H11          4.7060    -1.6390     0.1900 ha         1 3OL       0.163500
     11 H12          3.7760    -1.2840    -1.3610 ha         1 3OL       0.163500
     12 H21          3.1180    -0.3130     1.4740 ha         1 3OL       0.166000
     13 H31          1.8270     0.1170    -1.2900 h1         1 3OL       0.072700
     14 HO1          1.7320     1.8470     0.9260 ho         1 3OL       0.437000
     15 H41          0.5150    -1.4060     0.1480 hc         1 3OL       0.043200
     16 H42          0.4740    -0.2120     1.4250 hc         1 3OL       0.043200
     17 H51         -0.7830     1.3530    -0.0940 hc         1 3OL       0.044700
     18 H52         -0.7130     0.1580    -1.3720 hc         1 3OL       0.044700
     19 H61         -2.0030    -1.4420     0.0640 hc         1 3OL       0.036200
     20 H62         -2.0750    -0.2420     1.3340 hc         1 3OL       0.036200
     21 H71         -3.3220     1.3000    -0.1960 hc         1 3OL       0.037700
     22 H72         -3.2520     0.0970    -1.4620 hc         1 3OL       0.037700
     23 H81         -5.4580     0.0150    -0.2980 hc         1 3OL       0.031700
     24 H82         -4.5850    -1.4920    -0.0350 hc         1 3OL       0.031700
     25 H83         -4.6540    -0.2820     1.2400 hc         1 3OL       0.031700
@<TRIPOS>BOND
     1     1     2 2   
     2     1    10 1   
     3     1    11 1   
     4     2     3 1   
     5     2    12 1   
     6     3     4 1   
     7     3     5 1   
     8     3    13 1   
     9     4    14 1   
    10     5     6 1   
    11     5    15 1   
    12     5    16 1   
    13     6     7 1   
    14     6    17 1   
    15     6    18 1   
    16     7     8 1   
    17     7    19 1   
    18     7    20 1   
    19     8     9 1   
    20     8    21 1   
    21     8    22 1   
    22     9    23 1   
    23     9    24 1   
    24     9    25 1   
@<TRIPOS>SUBSTRUCTURE
     1 3OL         1 TEMP              0 ****  ****    0 ROOT
