@<TRIPOS>MOLECULE
3OM
   25    24     1     0     0
SMALL
abcg2


@<TRIPOS>ATOM
      1 C1           3.9990     0.4260     0.4890 c2         1 3OM      -0.305000
      2 O1           1.9180    -1.4560     0.0320 oh         1 3OM      -0.651000
      3 C2           2.9210     0.7440    -0.2150 c2         1 3OM      -0.257200
      4 C3           1.7460    -0.1560    -0.4810 c3         1 3OM       0.199500
      5 C4           0.4550     0.4980     0.0180 c3         1 3OM      -0.106400
      6 C5          -0.8060    -0.2720    -0.3510 c3         1 3OM      -0.073400
      7 C6          -2.0750     0.3850     0.1780 c3         1 3OM      -0.076400
      8 C7          -3.3420    -0.3780    -0.1900 c3         1 3OM      -0.075400
      9 C8          -4.6070     0.2740     0.3490 c3         1 3OM      -0.088100
     10 H1           4.7940     1.1430     0.6470 ha         1 3OM       0.165000
     11 H1A          4.1390    -0.5520     0.9330 ha         1 3OM       0.165000
     12 H2           2.8390     1.7390    -0.6450 ha         1 3OM       0.171000
     13 H3           1.6610    -0.2790    -1.5680 h1         1 3OM       0.077700
     14 H4           0.5180     0.6190     1.1070 hc         1 3OM       0.043200
     15 H4A          0.3950     1.5100    -0.3920 hc         1 3OM       0.043200
     16 H5          -0.8700    -0.3590    -1.4410 hc         1 3OM       0.044700
     17 H5A         -0.7420    -1.2940     0.0330 hc         1 3OM       0.044700
     18 H6          -2.0100     0.4720     1.2680 hc         1 3OM       0.035700
     19 H6A         -2.1460     1.4090    -0.2030 hc         1 3OM       0.035700
     20 H7          -3.4110    -0.4610    -1.2790 hc         1 3OM       0.037700
     21 H7A         -3.2670    -1.4030     0.1860 hc         1 3OM       0.037700
     22 H8          -5.4970    -0.2960     0.0790 hc         1 3OM       0.031367
     23 H8A         -4.5820     0.3480     1.4380 hc         1 3OM       0.031367
     24 H8B         -4.7320     1.2840    -0.0450 hc         1 3OM       0.031367
     25 HO1          1.8970    -1.4060     0.9940 ho         1 3OM       0.439000
@<TRIPOS>BOND
     1     1     3 2   
     2     1    10 1   
     3     1    11 1   
     4     2     4 1   
     5     2    25 1   
     6     3     4 1   
     7     3    12 1   
     8     4     5 1   
     9     4    13 1   
    10     5     6 1   
    11     5    14 1   
    12     5    15 1   
    13     6     7 1   
    14     6    16 1   
    15     6    17 1   
    16     7     8 1   
    17     7    18 1   
    18     7    19 1   
    19     8     9 1   
    20     8    20 1   
    21     8    21 1   
    22     9    22 1   
    23     9    23 1   
    24     9    24 1   
@<TRIPOS>SUBSTRUCTURE
     1 3OM         1 TEMP              0 ****  ****    0 ROOT
