@<TRIPOS>MOLECULE
3OM
   25    24     1     0     0
SMALL
No Charge or Current Charge


@<TRIPOS>ATOM
      1 C1           4.1300     0.5590    -0.3340 c2         1 3OM      -0.305000
      2 O1           1.8680    -1.3640     0.8650 oh         1 3OM      -0.651000
      3 C2           2.9380     0.6600     0.2790 c2         1 3OM      -0.257200
      4 C3           1.7430    -0.2260     0.0170 c3         1 3OM       0.199500
      5 C4           0.4010     0.4930     0.2920 c3         1 3OM      -0.106400
      6 C5          -0.8490    -0.3310    -0.1010 c3         1 3OM      -0.073400
      7 C6          -2.1730     0.4260     0.1450 c3         1 3OM      -0.076400
      8 C7          -3.4210    -0.3950    -0.2480 c3         1 3OM      -0.075400
      9 C8          -4.7420     0.3600    -0.0020 c3         1 3OM      -0.088100
     10 H1           4.9550     1.2330    -0.0930 ha         1 3OM       0.165000
     11 H1A          4.3250    -0.1970    -1.0980 ha         1 3OM       0.165000
     12 H2           2.7740     1.4260     1.0400 ha         1 3OM       0.171000
     13 H3           1.7580    -0.5350    -1.0400 h1         1 3OM       0.077700
     14 H4           0.3410     0.7600     1.3550 hc         1 3OM       0.043200
     15 H4A          0.3900     1.4340    -0.2710 hc         1 3OM       0.043200
     16 H5          -0.7820    -0.6030    -1.1620 hc         1 3OM       0.044700
     17 H5A         -0.8620    -1.2690     0.4690 hc         1 3OM       0.044700
     18 H6          -2.2400     0.6980     1.2060 hc         1 3OM       0.035700
     19 H6A         -2.1640     1.3620    -0.4260 hc         1 3OM       0.035700
     20 H7          -3.3590    -0.6680    -1.3090 hc         1 3OM       0.037700
     21 H7A         -3.4350    -1.3320     0.3230 hc         1 3OM       0.037700
     22 H8          -5.5970    -0.2610    -0.2950 hc         1 3OM       0.031367
     23 H8A         -4.8510     0.6160     1.0580 hc         1 3OM       0.031367
     24 H8B         -4.7740     1.2860    -0.5880 hc         1 3OM       0.031367
     25 HO1          2.8220    -1.5930     0.8610 ho         1 3OM       0.439000
@<TRIPOS>BOND
     1     1     3 2   
     2     1    10 1   
     3     1    11 1   
     4     2     4 1   
     5     2    25 1   
     6     3     4 1   
     7     3    12 1   
     8     4     5 1   
     9     4    13 1   
    10     5     6 1   
    11     5    14 1   
    12     5    15 1   
    13     6     7 1   
    14     6    16 1   
    15     6    17 1   
    16     7     8 1   
    17     7    18 1   
    18     7    19 1   
    19     8     9 1   
    20     8    20 1   
    21     8    21 1   
    22     9    22 1   
    23     9    23 1   
    24     9    24 1   
@<TRIPOS>SUBSTRUCTURE
     1 3OM         1 TEMP              0 ****  ****    0 ROOT
