@<TRIPOS>MOLECULE
3ON
   74    74     1     0     0
SMALL
No Charge or Current Charge


@<TRIPOS>ATOM
      1 O1           8.4370    -6.1830    85.2480 oh         1 3ON      -0.661000
      2 C5           9.5770    -5.7390    85.9920 c6         1 3ON       0.173300
      3 C4          10.1690    -6.9100    86.8030 c6         1 3ON      -0.042200
      4 C3          11.1920    -6.4740    87.8540 c2         1 3ON      -0.093400
      5 C11         12.0350    -7.6390    88.3580 c3         1 3ON      -0.057900
      6 C6           9.1730    -4.6060    86.9540 c6         1 3ON      -0.109400
      7 C1          10.4000    -4.0380    87.7300 c6         1 3ON       0.008200
      8 C9          11.2870    -3.1660    86.7860 c3         1 3ON      -0.083100
      9 C8           9.8640    -3.0990    88.8580 c3         1 3ON      -0.083100
     10 C2          11.2860    -5.1870    88.3010 ce         1 3ON      -0.077200
     11 C7          12.3280    -4.7560    89.2570 ce         1 3ON      -0.160000
     12 C12         13.6620    -5.0130    89.1240 cf         1 3ON      -0.187000
     13 C13         14.7420    -4.5970    90.0230 cf         1 3ON      -0.060200
     14 C14         14.3550    -4.1420    91.4280 c3         1 3ON      -0.055900
     15 C15         16.0420    -4.6830    89.6090 ce         1 3ON      -0.184000
     16 C16         17.2470    -4.3070    90.3680 ce         1 3ON      -0.169000
     17 C17         18.5190    -4.4740    89.9030 cf         1 3ON      -0.174000
     18 C18         19.7660    -4.1120    90.5930 cf         1 3ON      -0.063200
     19 C19         19.6280    -3.4750    91.9710 c3         1 3ON      -0.056900
     20 C20         21.0140    -4.3130    90.0670 ce         1 3ON      -0.177000
     21 C21         21.3670    -4.9080    88.7670 ce         1 3ON      -0.172000
     22 C22         22.6430    -5.0510    88.3170 cf         1 3ON      -0.171000
     23 C23         22.9930    -5.6410    87.0260 cf         1 3ON      -0.178000
     24 C24         24.2390    -5.8280    86.4920 ce         1 3ON      -0.062200
     25 C26         24.3830    -6.4710    85.1170 c3         1 3ON      -0.057900
     26 C25         25.4940    -5.4530    87.1810 ce         1 3ON      -0.174000
     27 C27         26.7590    -5.5390    86.6770 cf         1 3ON      -0.168000
     28 C28         27.9610    -5.1560    87.4140 cf         1 3ON      -0.182000
     29 C29         29.2300    -5.2190    86.9390 c2         1 3ON      -0.096400
     30 C30         29.5950    -5.7010    85.5410 c3         1 3ON      -0.051900
     31 C31         30.4360    -4.8300    87.7810 c3         1 3ON       0.195800
     32 O2          30.8060    -3.4740    87.5120 oh         1 3ON      -0.656000
     33 H1           8.1260    -5.4130    84.7250 ho         1 3ON       0.442000
     34 H5          10.3460    -5.3680    85.2990 h1         1 3ON       0.033700
     35 H4C1        10.6280    -7.6250    86.1060 hc         1 3ON       0.061700
     36 H4C2         9.3580    -7.4520    87.3100 hc         1 3ON       0.061700
     37 H111        11.4380    -8.5560    88.4410 hc         1 3ON       0.042367
     38 H112        12.4550    -7.4510    89.3520 hc         1 3ON       0.042367
     39 H113        12.8660    -7.8470    87.6740 hc         1 3ON       0.042367
     40 H6C1         8.4310    -4.9920    87.6680 hc         1 3ON       0.048200
     41 H6C2         8.6740    -3.8000    86.3990 hc         1 3ON       0.048200
     42 H9C1        12.1010    -2.6790    87.3370 hc         1 3ON       0.035867
     43 H9C2        10.7030    -2.3740    86.3030 hc         1 3ON       0.035867
     44 H9C3        11.7530    -3.7660    85.9960 hc         1 3ON       0.035867
     45 H8C1        10.6630    -2.5200    89.3370 hc         1 3ON       0.035867
     46 H8C2         9.3500    -3.6700    89.6400 hc         1 3ON       0.035867
     47 H8C3         9.1470    -2.3700    88.4600 hc         1 3ON       0.035867
     48 H7          11.9920    -4.1600    90.1030 ha         1 3ON       0.168000
     49 H12         13.9690    -5.5630    88.2330 ha         1 3ON       0.173000
     50 H141        15.1150    -4.4050    92.1710 hc         1 3ON       0.042367
     51 H142        13.4310    -4.6180    91.7740 hc         1 3ON       0.042367
     52 H143        14.2090    -3.0560    91.4650 hc         1 3ON       0.042367
     53 H15         16.2240    -5.0510    88.5980 ha         1 3ON       0.168000
     54 H16         17.0950    -3.8590    91.3490 ha         1 3ON       0.173000
     55 H17         18.6140    -4.9200    88.9150 ha         1 3ON       0.172000
     56 H191        20.6000    -3.2400    92.4210 hc         1 3ON       0.042033
     57 H192        19.1070    -4.1450    92.6660 hc         1 3ON       0.042033
     58 H193        19.0630    -2.5370    91.9180 hc         1 3ON       0.042033
     59 H20         21.8670    -4.0000    90.6720 ha         1 3ON       0.169000
     60 H21         20.5610    -5.2580    88.1230 ha         1 3ON       0.171000
     61 H22         23.4480    -4.6980    88.9630 ha         1 3ON       0.171000
     62 H23         22.1430    -5.9660    86.4230 ha         1 3ON       0.169000
     63 H261        25.0300    -7.3550    85.1580 hc         1 3ON       0.042367
     64 H262        24.8150    -5.7690    84.3950 hc         1 3ON       0.042367
     65 H263        23.4200    -6.8000    84.7100 hc         1 3ON       0.042367
     66 H25         25.4020    -5.0690    88.1950 ha         1 3ON       0.172000
     67 H27         26.8990    -5.9180    85.6640 ha         1 3ON       0.174000
     68 H28         27.8090    -4.7970    88.4340 ha         1 3ON       0.168000
     69 H301        30.6400    -5.4810    85.2850 hc         1 3ON       0.044367
     70 H302        28.9720    -5.2140    84.7800 hc         1 3ON       0.044367
     71 H303        29.4520    -6.7850    85.4520 hc         1 3ON       0.044367
     72 H311        31.2760    -5.5050    87.5650 h1         1 3ON       0.024200
     73 H312        30.1940    -4.9500    88.8460 h1         1 3ON       0.024200
     74 H2          31.5700    -3.2680    88.0960 ho         1 3ON       0.441000
@<TRIPOS>BOND
     1     1     2 1   
     2     1    33 1   
     3     2     3 1   
     4     2     6 1   
     5     2    34 1   
     6     3     4 1   
     7     3    35 1   
     8     3    36 1   
     9     4     5 1   
    10     4    10 2   
    11     5    37 1   
    12     5    38 1   
    13     5    39 1   
    14     6     7 1   
    15     6    40 1   
    16     6    41 1   
    17     7     8 1   
    18     7     9 1   
    19     7    10 1   
    20     8    42 1   
    21     8    43 1   
    22     8    44 1   
    23     9    45 1   
    24     9    46 1   
    25     9    47 1   
    26    10    11 1   
    27    11    12 2   
    28    11    48 1   
    29    12    13 1   
    30    12    49 1   
    31    13    14 1   
    32    13    15 2   
    33    14    50 1   
    34    14    51 1   
    35    14    52 1   
    36    15    16 1   
    37    15    53 1   
    38    16    17 2   
    39    16    54 1   
    40    17    18 1   
    41    17    55 1   
    42    18    19 1   
    43    18    20 2   
    44    19    56 1   
    45    19    57 1   
    46    19    58 1   
    47    20    21 1   
    48    20    59 1   
    49    21    22 2   
    50    21    60 1   
    51    22    23 1   
    52    22    61 1   
    53    23    24 2   
    54    23    62 1   
    55    24    25 1   
    56    24    26 1   
    57    25    63 1   
    58    25    64 1   
    59    25    65 1   
    60    26    27 2   
    61    26    66 1   
    62    27    28 1   
    63    27    67 1   
    64    28    29 2   
    65    28    68 1   
    66    29    30 1   
    67    29    31 1   
    68    30    69 1   
    69    30    70 1   
    70    30    71 1   
    71    31    32 1   
    72    31    72 1   
    73    31    73 1   
    74    32    74 1   
@<TRIPOS>SUBSTRUCTURE
     1 3ON         1 TEMP              0 ****  ****    0 ROOT
