@<TRIPOS>MOLECULE
3ON
   74    74     1     0     0
SMALL
abcg2


@<TRIPOS>ATOM
      1 O1           7.9340    -5.4480    85.8640 oh         1 3ON      -0.661000
      2 C5           9.1630    -5.6370    86.5400 c6         1 3ON       0.173300
      3 C4           8.8860    -5.6020    88.0240 c6         1 3ON      -0.042200
      4 C3          10.1190    -5.4580    88.8690 c2         1 3ON      -0.093400
      5 C11          9.8600    -5.7400    90.3290 c3         1 3ON      -0.057900
      6 C6          10.1770    -4.5600    86.2170 c6         1 3ON      -0.109400
      7 C1          11.5360    -4.7960    86.8940 c6         1 3ON       0.008200
      8 C9          12.2650    -5.9320    86.1570 c3         1 3ON      -0.083100
      9 C8          12.3190    -3.4850    86.7220 c3         1 3ON      -0.083100
     10 C2          11.3380    -5.1360    88.3730 ce         1 3ON      -0.077200
     11 C7          12.4640    -5.1200    89.3040 ce         1 3ON      -0.160000
     12 C12         13.7890    -5.1030    89.0560 cf         1 3ON      -0.187000
     13 C13         14.8230    -5.1000    90.0750 cf         1 3ON      -0.060200
     14 C14         14.4120    -5.1060    91.5150 c3         1 3ON      -0.055900
     15 C15         16.1160    -5.0840    89.6590 ce         1 3ON      -0.184000
     16 C16         17.2970    -5.0690    90.4750 ce         1 3ON      -0.169000
     17 C17         18.5430    -5.0480    89.9500 cf         1 3ON      -0.174000
     18 C18         19.7650    -5.0270    90.7200 cf         1 3ON      -0.063200
     19 C19         19.6630    -5.0350    92.2180 c3         1 3ON      -0.056900
     20 C20         20.9950    -5.0000    90.1390 ce         1 3ON      -0.177000
     21 C21         21.3050    -4.9890    88.7380 ce         1 3ON      -0.172000
     22 C22         22.5730    -4.9540    88.2670 cf         1 3ON      -0.171000
     23 C23         22.8800    -4.9400    86.8640 cf         1 3ON      -0.178000
     24 C24         24.1060    -4.8970    86.2800 ce         1 3ON      -0.062200
     25 C26         24.2040    -4.8870    84.7820 c3         1 3ON      -0.057900
     26 C25         25.3330    -4.8560    87.0470 ce         1 3ON      -0.174000
     27 C27         26.5720    -4.8020    86.5170 cf         1 3ON      -0.168000
     28 C28         27.7660    -4.7500    87.3280 cf         1 3ON      -0.182000
     29 C29         29.0350    -4.6640    86.8910 c2         1 3ON      -0.096400
     30 C30         29.4470    -4.5800    85.4550 c3         1 3ON      -0.051900
     31 C31         30.1590    -4.6590    87.8860 c3         1 3ON       0.195800
     32 O2          30.9470    -3.5010    87.6920 oh         1 3ON      -0.656000
     33 H1           8.0980    -5.5280    84.9190 ho         1 3ON       0.442000
     34 H5           9.5810    -6.6200    86.2840 h1         1 3ON       0.033700
     35 H4C1         8.3530    -6.5050    88.3380 hc         1 3ON       0.061700
     36 H4C2         8.2090    -4.7660    88.2490 hc         1 3ON       0.061700
     37 H111        10.2700    -4.9770    90.9910 hc         1 3ON       0.042367
     38 H112        10.2820    -6.6990    90.6370 hc         1 3ON       0.042367
     39 H113         8.7880    -5.7850    90.5220 hc         1 3ON       0.042367
     40 H6C1         9.7680    -3.5950    86.5400 hc         1 3ON       0.048200
     41 H6C2        10.3360    -4.4890    85.1350 hc         1 3ON       0.048200
     42 H9C1        13.2360    -6.1600    86.5920 hc         1 3ON       0.035867
     43 H9C2        12.4330    -5.6550    85.1140 hc         1 3ON       0.035867
     44 H9C3        11.6860    -6.8560    86.1680 hc         1 3ON       0.035867
     45 H8C1        13.3640    -3.5600    87.0100 hc         1 3ON       0.035867
     46 H8C2        11.8680    -2.6800    87.3050 hc         1 3ON       0.035867
     47 H8C3        12.2950    -3.1860    85.6710 hc         1 3ON       0.035867
     48 H7          12.1840    -5.1540    90.3500 ha         1 3ON       0.168000
     49 H12         14.1610    -5.1000    88.0400 ha         1 3ON       0.173000
     50 H141        15.2580    -5.1200    92.1980 hc         1 3ON       0.042367
     51 H142        13.7950    -5.9780    91.7420 hc         1 3ON       0.042367
     52 H143        13.8130    -4.2250    91.7530 hc         1 3ON       0.042367
     53 H15         16.2890    -5.0790    88.5850 ha         1 3ON       0.168000
     54 H16         17.1790    -5.0730    91.5520 ha         1 3ON       0.173000
     55 H17         18.6270    -5.0430    88.8680 ha         1 3ON       0.172000
     56 H191        20.6480    -5.0190    92.6810 hc         1 3ON       0.042033
     57 H192        19.1380    -5.9220    92.5780 hc         1 3ON       0.042033
     58 H193        19.1080    -4.1680    92.5850 hc         1 3ON       0.042033
     59 H20         21.8540    -4.9850    90.8040 ha         1 3ON       0.169000
     60 H21         20.4950    -5.0070    88.0160 ha         1 3ON       0.171000
     61 H22         23.3840    -4.9340    88.9870 ha         1 3ON       0.171000
     62 H23         22.0190    -4.9660    86.2020 ha         1 3ON       0.169000
     63 H261        24.7750    -5.7420    84.4120 hc         1 3ON       0.042367
     64 H262        24.7120    -3.9890    84.4210 hc         1 3ON       0.042367
     65 H263        23.2180    -4.9210    84.3210 hc         1 3ON       0.042367
     66 H25         25.2530    -4.8630    88.1290 ha         1 3ON       0.172000
     67 H27         26.6870    -4.7900    85.4390 ha         1 3ON       0.174000
     68 H28         27.6050    -4.7830    88.4030 ha         1 3ON       0.168000
     69 H301        30.2360    -5.3050    85.2390 hc         1 3ON       0.044367
     70 H302        29.8590    -3.5950    85.2250 hc         1 3ON       0.044367
     71 H303        28.6310    -4.7630    84.7610 hc         1 3ON       0.044367
     72 H311        30.7600    -5.5670    87.7370 h1         1 3ON       0.024200
     73 H312        29.7560    -4.7090    88.9040 h1         1 3ON       0.024200
     74 H2          31.7780    -3.6270    88.1590 ho         1 3ON       0.441000
@<TRIPOS>BOND
     1     1     2 1   
     2     1    33 1   
     3     2     3 1   
     4     2     6 1   
     5     2    34 1   
     6     3     4 1   
     7     3    35 1   
     8     3    36 1   
     9     4     5 1   
    10     4    10 2   
    11     5    37 1   
    12     5    38 1   
    13     5    39 1   
    14     6     7 1   
    15     6    40 1   
    16     6    41 1   
    17     7     8 1   
    18     7     9 1   
    19     7    10 1   
    20     8    42 1   
    21     8    43 1   
    22     8    44 1   
    23     9    45 1   
    24     9    46 1   
    25     9    47 1   
    26    10    11 1   
    27    11    12 2   
    28    11    48 1   
    29    12    13 1   
    30    12    49 1   
    31    13    14 1   
    32    13    15 2   
    33    14    50 1   
    34    14    51 1   
    35    14    52 1   
    36    15    16 1   
    37    15    53 1   
    38    16    17 2   
    39    16    54 1   
    40    17    18 1   
    41    17    55 1   
    42    18    19 1   
    43    18    20 2   
    44    19    56 1   
    45    19    57 1   
    46    19    58 1   
    47    20    21 1   
    48    20    59 1   
    49    21    22 2   
    50    21    60 1   
    51    22    23 1   
    52    22    61 1   
    53    23    24 2   
    54    23    62 1   
    55    24    25 1   
    56    24    26 1   
    57    25    63 1   
    58    25    64 1   
    59    25    65 1   
    60    26    27 2   
    61    26    66 1   
    62    27    28 1   
    63    27    67 1   
    64    28    29 2   
    65    28    68 1   
    66    29    30 1   
    67    29    31 1   
    68    30    69 1   
    69    30    70 1   
    70    30    71 1   
    71    31    32 1   
    72    31    72 1   
    73    31    73 1   
    74    32    74 1   
@<TRIPOS>SUBSTRUCTURE
     1 3ON         1 TEMP              0 ****  ****    0 ROOT
