@<TRIPOS>MOLECULE
3OO
   39    39     1     0     0
SMALL
abcg2


@<TRIPOS>ATOM
      1 BR           4.0210     2.0150     0.3720 br         1 3OO      -0.094100
      2 C12          3.5620     0.1960     0.1570 ca         1 3OO      -0.028900
      3 C11          4.5590    -0.7300    -0.1100 ca         1 3OO      -0.066000
      4 C10          4.2100    -2.0680    -0.2440 ca         1 3OO      -0.119000
      5 C9           2.8920    -2.4700    -0.1090 ca         1 3OO      -0.047000
      6 C13          2.2350    -0.1860     0.2800 ca         1 3OO      -0.064000
      7 C8           1.8970    -1.5300     0.1380 ca         1 3OO      -0.148600
      8 C7           0.4850    -2.0060     0.2960 c          1 3OO       0.609700
      9 O            0.2450    -3.1210     0.7390 o          1 3OO      -0.598100
     10 N1          -0.4720    -1.1410    -0.0680 ns         1 3OO      -0.501900
     11 C6          -1.8840    -1.4430     0.0480 c3         1 3OO       0.102000
     12 C5          -2.7090    -0.1820    -0.1500 c3         1 3OO      -0.100400
     13 C4          -4.1990    -0.4430     0.0190 c3         1 3OO       0.168800
     14 N           -4.9290     0.8030    -0.1140 n7         1 3OO      -0.871400
     15 C1          -6.3930     0.7430    -0.0290 c3         1 3OO       0.193200
     16 C3          -6.9470     0.0250    -1.2580 c3         1 3OO      -0.096100
     17 C2          -6.8970     0.0520     1.2450 c3         1 3OO      -0.096100
     18 C           -6.8810     2.1910    -0.0360 c3         1 3OO      -0.096100
     19 H1           5.5930    -0.4260    -0.2080 ha         1 3OO       0.132000
     20 H2           4.9810    -2.7980    -0.4500 ha         1 3OO       0.123000
     21 H3           2.6360    -3.5170    -0.2050 ha         1 3OO       0.139000
     22 H4           1.4780     0.5530     0.5080 ha         1 3OO       0.129000
     23 H5          -0.2150    -0.3170    -0.5870 hn         1 3OO       0.316500
     24 H6          -2.1740    -2.2040    -0.6840 h1         1 3OO       0.052700
     25 H7          -2.0770    -1.8630     1.0370 h1         1 3OO       0.052700
     26 H8          -2.3890     0.5720     0.5760 hc         1 3OO       0.050200
     27 H9          -2.5260     0.2330    -1.1450 hc         1 3OO       0.050200
     28 H10         -4.5300    -1.1410    -0.7540 h1         1 3OO       0.033200
     29 H11         -4.3660    -0.9470     0.9820 h1         1 3OO       0.033200
     30 H12         -4.5990     1.4350     0.6080 hn         1 3OO       0.406000
     31 H14         -6.6920    -1.0360    -1.2680 hc         1 3OO       0.037700
     32 H15         -8.0360     0.0920    -1.2810 hc         1 3OO       0.037700
     33 H16         -6.5610     0.4740    -2.1750 hc         1 3OO       0.037700
     34 H17         -6.4690     0.5180     2.1360 hc         1 3OO       0.037700
     35 H18         -7.9840     0.1230     1.3230 hc         1 3OO       0.037700
     36 H19         -6.6420    -1.0080     1.2670 hc         1 3OO       0.037700
     37 H20         -6.5350     2.7140    -0.9300 hc         1 3OO       0.037700
     38 H21         -7.9710     2.2390    -0.0150 hc         1 3OO       0.037700
     39 H22         -6.5120     2.7350     0.8370 hc         1 3OO       0.037700
@<TRIPOS>BOND
     1     1     2 1   
     2     2     3 ar  
     3     2     6 ar  
     4     3     4 ar  
     5     3    19 1   
     6     4     5 ar  
     7     4    20 1   
     8     5     7 ar  
     9     5    21 1   
    10     6     7 ar  
    11     6    22 1   
    12     7     8 1   
    13     8     9 2   
    14     8    10 1   
    15    10    11 1   
    16    10    23 1   
    17    11    12 1   
    18    11    24 1   
    19    11    25 1   
    20    12    13 1   
    21    12    26 1   
    22    12    27 1   
    23    13    14 1   
    24    13    28 1   
    25    13    29 1   
    26    14    15 1   
    27    14    30 1   
    28    15    16 1   
    29    15    17 1   
    30    15    18 1   
    31    16    31 1   
    32    16    32 1   
    33    16    33 1   
    34    17    34 1   
    35    17    35 1   
    36    17    36 1   
    37    18    37 1   
    38    18    38 1   
    39    18    39 1   
@<TRIPOS>SUBSTRUCTURE
     1 3OO         1 TEMP              0 ****  ****    0 ROOT
