@<TRIPOS>MOLECULE
3OO
   39    39     1     0     0
SMALL
No Charge or Current Charge


@<TRIPOS>ATOM
      1 Br           4.0390     2.0690    -0.1340 br         1 3OO      -0.094100
      2 C12          3.6310     0.2020    -0.0650 ca         1 3OO      -0.028900
      3 C11          4.6730    -0.7380    -0.0370 ca         1 3OO      -0.066000
      4 C10          4.3710    -2.1070     0.0140 ca         1 3OO      -0.119000
      5 C9           3.0320    -2.5350     0.0370 ca         1 3OO      -0.047000
      6 C13          2.2900    -0.2190    -0.0430 ca         1 3OO      -0.064000
      7 C8           1.9710    -1.5990     0.0090 ca         1 3OO      -0.148600
      8 C7           0.5410    -2.0990     0.0350 c          1 3OO       0.609700
      9 O            0.2670    -3.2910     0.0790 o          1 3OO      -0.598100
     10 N1          -0.4530    -1.1450     0.0050 ns         1 3OO      -0.501900
     11 C6          -1.8850    -1.4440     0.0240 c3         1 3OO       0.102000
     12 C5          -2.7340    -0.1600     0.0120 c3         1 3OO      -0.100400
     13 C4          -4.2450    -0.4540     0.0300 c3         1 3OO       0.168800
     14 N           -5.0000     0.8190     0.0080 n7         1 3OO      -0.871400
     15 C1          -6.4810     0.7740    -0.0070 c3         1 3OO       0.193200
     16 C3          -6.9820     0.0280    -1.2700 c3         1 3OO      -0.096100
     17 C2          -7.0040     0.0910     1.2820 c3         1 3OO      -0.096100
     18 C           -6.9610     2.2440    -0.0490 c3         1 3OO      -0.096100
     19 H1           5.7090    -0.4070    -0.0540 ha         1 3OO       0.132000
     20 H2           5.1750    -2.8400     0.0360 ha         1 3OO       0.123000
     21 H3           2.8210    -3.6030     0.0760 ha         1 3OO       0.139000
     22 H4           1.5140     0.5410    -0.0660 ha         1 3OO       0.129000
     23 H5          -0.1620    -0.1770    -0.0320 hn         1 3OO       0.316500
     24 H6          -2.1300    -2.0560    -0.8550 h1         1 3OO       0.052700
     25 H7          -2.1140    -2.0280     0.9260 h1         1 3OO       0.052700
     26 H8          -2.4720     0.4530     0.8830 hc         1 3OO       0.050200
     27 H9          -2.4910     0.4240    -0.8850 hc         1 3OO       0.050200
     28 H10         -4.4910    -1.0730    -0.8430 h1         1 3OO       0.033200
     29 H11         -4.4780    -1.0340     0.9330 h1         1 3OO       0.033200
     30 H12         -4.7140     1.3700     0.8240 hn         1 3OO       0.406000
     31 H14         -6.7290    -1.0380    -1.2360 hc         1 3OO       0.037700
     32 H15         -8.0730     0.1030    -1.3530 hc         1 3OO       0.037700
     33 H16         -6.5440     0.4570    -2.1800 hc         1 3OO       0.037700
     34 H17         -6.5950     0.5730     2.1780 hc         1 3OO       0.037700
     35 H18         -8.0980     0.1580     1.3350 hc         1 3OO       0.037700
     36 H19         -6.7390    -0.9720     1.3110 hc         1 3OO       0.037700
     37 H20         -6.5870     2.7540    -0.9450 hc         1 3OO       0.037700
     38 H21         -8.0560     2.2960    -0.0640 hc         1 3OO       0.037700
     39 H22         -6.6100     2.7990     0.8300 hc         1 3OO       0.037700
@<TRIPOS>BOND
     1     1     2 1   
     2     2     3 ar  
     3     2     6 ar  
     4     3     4 ar  
     5     3    19 1   
     6     4     5 ar  
     7     4    20 1   
     8     5     7 ar  
     9     5    21 1   
    10     6     7 ar  
    11     6    22 1   
    12     7     8 1   
    13     8     9 2   
    14     8    10 1   
    15    10    11 1   
    16    10    23 1   
    17    11    12 1   
    18    11    24 1   
    19    11    25 1   
    20    12    13 1   
    21    12    26 1   
    22    12    27 1   
    23    13    14 1   
    24    13    28 1   
    25    13    29 1   
    26    14    15 1   
    27    14    30 1   
    28    15    16 1   
    29    15    17 1   
    30    15    18 1   
    31    16    31 1   
    32    16    32 1   
    33    16    33 1   
    34    17    34 1   
    35    17    35 1   
    36    17    36 1   
    37    18    37 1   
    38    18    38 1   
    39    18    39 1   
@<TRIPOS>SUBSTRUCTURE
     1 3OO         1 TEMP              0 ****  ****    0 ROOT
