@<TRIPOS>MOLECULE
3OP
   21    22     1     0     0
SMALL
bcc


@<TRIPOS>ATOM
      1 C4          -1.1620    -0.3990    -0.0240 ca         1 3OP      -0.007200
      2 C5           1.7840    -0.2560     1.1980 ca         1 3OP      -0.132500
      3 C6          -1.1700     0.9870    -0.0010 ca         1 3OP      -0.132500
      4 C7           3.0450     0.3200     1.1660 ca         1 3OP      -0.225300
      5 C8          -2.4020     1.6270     0.0190 ca         1 3OP      -0.225300
      6 C9           3.6350     0.5670    -0.0650 ca         1 3OP       0.385700
      7 C10         -3.5610     0.8700     0.0140 ca         1 3OP       0.385700
      8 N12         -3.5460    -0.4590    -0.0070 nb         1 3OP      -0.647500
      9 C2          -2.3790    -1.0790    -0.0240 ca         1 3OP       0.392200
     10 O13         -0.0420    -1.1690    -0.0520 os         1 3OP      -0.239200
     11 C3           1.1830    -0.5590    -0.0110 ca         1 3OP      -0.007200
     12 N11          3.0530     0.2740    -1.2220 nb         1 3OP      -0.647500
     13 C1           1.8480    -0.2770    -1.1960 ca         1 3OP       0.392200
     14 H2          -0.2590     1.5700     0.0010 ha         1 3OP       0.151000
     15 H3           3.5620     0.5720     2.0810 ha         1 3OP       0.144500
     16 H4          -2.4540     2.7070     0.0360 ha         1 3OP       0.144500
     17 H5           4.6180     1.0190    -0.1170 h4         1 3OP       0.024600
     18 H6          -4.5330     1.3490     0.0290 h4         1 3OP       0.024600
     19 H7          -2.3880    -2.1640    -0.0420 h4         1 3OP       0.034600
     20 H8           1.3860    -0.5150    -2.1490 h4         1 3OP       0.034600
     21 H1           1.2880    -0.4690     2.1360 ha         1 3OP       0.151000
@<TRIPOS>BOND
     1     1     3 ar  
     2     1     9 ar  
     3     1    10 1   
     4     2     4 ar  
     5     2    11 ar  
     6     2    21 1   
     7     3     5 ar  
     8     3    14 1   
     9     4     6 ar  
    10     4    15 1   
    11     5     7 ar  
    12     5    16 1   
    13     6    12 ar  
    14     6    17 1   
    15     7     8 ar  
    16     7    18 1   
    17     8     9 ar  
    18     9    19 1   
    19    10    11 1   
    20    11    13 ar  
    21    12    13 ar  
    22    13    20 1   
@<TRIPOS>SUBSTRUCTURE
     1 3OP         1 TEMP              0 ****  ****    0 ROOT
