@<TRIPOS>MOLECULE
3OP
   21    22     1     0     0
SMALL
No Charge or Current Charge


@<TRIPOS>ATOM
      1 C4          -1.1970    -0.2980    -0.3150 ca         1 3OP       0.058100
      2 C5           1.4990     0.0250     0.8830 ca         1 3OP      -0.114500
      3 C6          -1.2870     1.1020    -0.1940 ca         1 3OP      -0.114500
      4 C7           2.8130     0.4400     1.1660 ca         1 3OP      -0.142000
      5 C8          -2.5060     1.6520     0.2420 ca         1 3OP      -0.142000
      6 C9           3.7990     0.3420     0.1660 ca         1 3OP       0.320400
      7 C10         -3.5860     0.7970     0.5310 ca         1 3OP       0.320400
      8 N12         -3.5130    -0.5500     0.4050 nb         1 3OP      -0.647500
      9 C2          -2.3350    -1.0790    -0.0160 ca         1 3OP       0.326900
     10 O13         -0.0390    -0.9090    -0.7540 os         1 3OP      -0.239200
     11 C3           1.2220    -0.4670    -0.4080 ca         1 3OP       0.058100
     12 N11          3.5460    -0.1430    -1.0730 nb         1 3OP      -0.647500
     13 C1           2.2770    -0.5420    -1.3450 ca         1 3OP       0.326900
     14 H2          -0.4440     1.7460    -0.4350 ha         1 3OP       0.133000
     15 H3           3.0730     0.8290     2.1460 ha         1 3OP       0.126500
     16 H4          -2.6220     2.7270     0.3530 ha         1 3OP       0.126500
     17 H5           4.8230     0.6570     0.3650 h4         1 3OP       0.024600
     18 H6          -4.5390     1.2020     0.8690 h4         1 3OP       0.024600
     19 H7          -2.3000    -2.1640    -0.1130 h4         1 3OP       0.034600
     20 H8           2.0970    -0.9310    -2.3470 h4         1 3OP       0.034600
     21 H1           0.7240     0.0810     1.6450 ha         1 3OP       0.133000
@<TRIPOS>BOND
     1     1     3 ar  
     2     1     9 ar  
     3     1    10 1   
     4     2     4 ar  
     5     2    11 ar  
     6     2    21 1   
     7     3     5 ar  
     8     3    14 1   
     9     4     6 ar  
    10     4    15 1   
    11     5     7 ar  
    12     5    16 1   
    13     6    12 ar  
    14     6    17 1   
    15     7     8 ar  
    16     7    18 1   
    17     8     9 ar  
    18     9    19 1   
    19    10    11 1   
    20    11    13 ar  
    21    12    13 ar  
    22    13    20 1   
@<TRIPOS>SUBSTRUCTURE
     1 3OP         1 TEMP              0 ****  ****    0 ROOT
