@<TRIPOS>MOLECULE
3OQ
   42    43     1     0     0
SMALL
abcg2


@<TRIPOS>ATOM
      1 C4           4.3940     1.9450    -0.3970 ca         1 3OQ       0.042000
      2 C5           5.3580     2.9500    -0.0790 cg         1 3OQ       0.309000
      3 C7           3.9250     1.1050     0.6070 ca         1 3OQ      -0.099000
      4 C8           2.9870     0.1130     0.3400 ca         1 3OQ       0.014700
      5 C10          3.5760    -1.8890     1.6890 c3         1 3OQ       0.189600
      6 C15         -0.1870    -0.6720    -0.7850 ca         1 3OQ      -0.254500
      7 C17         -1.9650     0.9240    -0.7780 ca         1 3OQ      -0.104500
      8 C21         -3.9530     2.1570     1.0700 c3         1 3OQ      -0.087100
      9 C22         -5.0690     0.3600    -0.3010 c3         1 3OQ       0.263000
     10 C26         -2.0510    -0.9770     0.6780 ca         1 3OQ      -0.104500
     11 F23         -5.1280    -0.9550    -0.5590 f          1 3OQ      -0.109667
     12 F24         -4.8450     0.9800    -1.4630 f          1 3OQ      -0.109667
     13 F25         -6.2800     0.7310     0.1170 f          1 3OQ      -0.109667
     14 C19         -3.9820     0.6650     0.7490 c3         1 3OQ       0.185300
     15 O20         -4.3410     0.0200     1.9380 oh         1 3OQ      -0.635000
     16 C18         -2.6360     0.1910     0.2030 ca         1 3OQ      -0.074300
     17 C27         -0.8320    -1.4190     0.1850 ca         1 3OQ      -0.014500
     18 C16         -0.7490     0.4980    -1.2770 ca         1 3OQ      -0.014500
     19 O13          1.6890    -2.5170    -0.8760 o          1 3OQ      -0.518000
     20 O14          1.2200    -1.1520    -2.9310 o          1 3OQ      -0.518000
     21 C1           2.5350     0.0020    -0.9800 ca         1 3OQ      -0.229500
     22 C2           2.9980     0.8410    -1.9860 ca         1 3OQ      -0.031000
     23 C3           3.9320     1.8190    -1.7020 ca         1 3OQ      -0.092000
     24 N6           6.1360     3.7610     0.1740 n1         1 3OQ      -0.425000
     25 C9           2.5730    -0.7660     1.4900 c3         1 3OQ      -0.081100
     26 F11          3.1790    -2.6680     2.7710 f          1 3OQ      -0.265000
     27 H1           4.2930     1.2230     1.6180 ha         1 3OQ       0.131000
     28 H2           3.6340    -2.5270     0.8080 h1         1 3OQ       0.058200
     29 H3           4.5690    -1.4900     1.9030 h1         1 3OQ       0.058200
     30 H4          -2.3760     1.8450    -1.1660 ha         1 3OQ       0.125500
     31 H5          -3.7480     2.7700     0.1970 hc         1 3OQ       0.063700
     32 H6          -4.9020     2.4800     1.4960 hc         1 3OQ       0.063700
     33 H7          -3.1700     2.3450     1.8020 hc         1 3OQ       0.063700
     34 H8          -2.5190    -1.5730     1.4490 ha         1 3OQ       0.125500
     35 H9          -4.4290    -0.9330     1.8150 ho         1 3OQ       0.464000
     36 H10         -0.4070    -2.3400     0.5620 ha         1 3OQ       0.139500
     37 H11         -0.2530     1.0860    -2.0380 ha         1 3OQ       0.139500
     38 H12          2.6370     0.7410    -2.9990 ha         1 3OQ       0.153000
     39 H13          4.2920     2.4730    -2.4830 ha         1 3OQ       0.136000
     40 H14          2.5380    -0.1540     2.3930 hc         1 3OQ       0.068700
     41 H15          1.5770    -1.1830     1.3590 hc         1 3OQ       0.068700
     42 S12          1.3410    -1.2370    -1.4810 sy         1 3OQ       1.012000
@<TRIPOS>BOND
     1     1     2 1   
     2     1     3 ar  
     3     1    23 ar  
     4     2    24 3   
     5     3     4 ar  
     6     3    27 1   
     7     4    21 ar  
     8     4    25 1   
     9     5    25 1   
    10     5    26 1   
    11     5    28 1   
    12     5    29 1   
    13     6    17 ar  
    14     6    18 ar  
    15     6    42 1   
    16     7    16 ar  
    17     7    18 ar  
    18     7    30 1   
    19     8    14 1   
    20     8    31 1   
    21     8    32 1   
    22     8    33 1   
    23     9    11 1   
    24     9    12 1   
    25     9    13 1   
    26     9    14 1   
    27    10    16 ar  
    28    10    17 ar  
    29    10    34 1   
    30    14    15 1   
    31    14    16 1   
    32    15    35 1   
    33    17    36 1   
    34    18    37 1   
    35    19    42 2   
    36    20    42 2   
    37    21    22 ar  
    38    21    42 1   
    39    22    23 ar  
    40    22    38 1   
    41    23    39 1   
    42    25    40 1   
    43    25    41 1   
@<TRIPOS>SUBSTRUCTURE
     1 3OQ         1 TEMP              0 ****  ****    0 ROOT
