@<TRIPOS>MOLECULE
3OQ
   42    43     1     0     0
SMALL
No Charge or Current Charge


@<TRIPOS>ATOM
      1 C4           4.4130     2.0180    -0.4570 ca         1 3OQ       0.042000
      2 C5           5.3410     3.0720    -0.1450 cg         1 3OQ       0.309000
      3 C7           3.9070     1.1940     0.5620 ca         1 3OQ      -0.099000
      4 C8           2.9950     0.1560     0.2810 ca         1 3OQ       0.014700
      5 C10          3.4870    -1.7960     1.8490 c3         1 3OQ       0.189600
      6 C15         -0.1610    -0.7980    -0.8660 ca         1 3OQ      -0.254500
      7 C17         -1.8610     0.9370    -0.6710 ca         1 3OQ      -0.104500
      8 C21         -3.8700     2.1370     1.2230 c3         1 3OQ      -0.087100
      9 C22         -5.1200     0.4470    -0.2740 c3         1 3OQ       0.263000
     10 C26         -2.1290    -1.1550     0.5290 ca         1 3OQ      -0.104500
     11 F23         -5.2450    -0.8590    -0.6110 f          1 3OQ      -0.109667
     12 F24         -4.8790     1.1400    -1.4120 f          1 3OQ      -0.109667
     13 F25         -6.3180     0.8580     0.2070 f          1 3OQ      -0.109667
     14 C19         -3.9720     0.6500     0.7850 c3         1 3OQ       0.185300
     15 O20         -4.3000    -0.0720     1.9900 oh         1 3OQ      -0.635000
     16 C18         -2.6220     0.1360     0.2140 ca         1 3OQ      -0.074300
     17 C27         -0.9120    -1.6170    -0.0010 ca         1 3OQ      -0.014500
     18 C16         -0.6450     0.4780    -1.2040 ca         1 3OQ      -0.014500
     19 O13          1.7770    -2.6130    -0.8690 o          1 3OQ      -0.518000
     20 O14          1.2800    -1.3300    -3.0150 o          1 3OQ      -0.518000
     21 C1           2.5870    -0.0620    -1.0680 ca         1 3OQ      -0.229500
     22 C2           3.1000     0.7780    -2.0850 ca         1 3OQ      -0.031000
     23 C3           4.0050     1.8070    -1.7820 ca         1 3OQ      -0.092000
     24 N6           6.0970     3.9230     0.1180 n1         1 3OQ      -0.425000
     25 C9           2.5030    -0.6710     1.4720 c3         1 3OQ      -0.081100
     26 F11          3.0180    -2.4780     2.9230 f          1 3OQ      -0.265000
     27 H1           4.2250     1.3650     1.5890 ha         1 3OQ       0.131000
     28 H2           3.6120    -2.4960     1.0140 h1         1 3OQ       0.058200
     29 H3           4.4670    -1.3730     2.1030 h1         1 3OQ       0.058200
     30 H4          -2.2070     1.9230    -0.9660 ha         1 3OQ       0.125500
     31 H5          -3.7720     2.8120     0.3650 hc         1 3OQ       0.063700
     32 H6          -4.7650     2.4430     1.7770 hc         1 3OQ       0.063700
     33 H7          -3.0030     2.2860     1.8770 hc         1 3OQ       0.063700
     34 H8          -2.6800    -1.8190     1.1880 ha         1 3OQ       0.125500
     35 H9          -4.6410    -0.9510     1.7180 ho         1 3OQ       0.464000
     36 H10         -0.5620    -2.6130     0.2650 ha         1 3OQ       0.139500
     37 H11         -0.0820     1.1190    -1.8800 ha         1 3OQ       0.139500
     38 H12          2.8040     0.6430    -3.1240 ha         1 3OQ       0.153000
     39 H13          4.3870     2.4380    -2.5820 ha         1 3OQ       0.136000
     40 H14          2.3830    -0.0180     2.3450 hc         1 3OQ       0.068700
     41 H15          1.5110    -1.0970     1.3050 hc         1 3OQ       0.068700
     42 S12          1.4100    -1.3650    -1.5520 sy         1 3OQ       1.012000
@<TRIPOS>BOND
     1     1     2 1   
     2     1     3 ar  
     3     1    23 ar  
     4     2    24 3   
     5     3     4 ar  
     6     3    27 1   
     7     4    21 ar  
     8     4    25 1   
     9     5    25 1   
    10     5    26 1   
    11     5    28 1   
    12     5    29 1   
    13     6    17 ar  
    14     6    18 ar  
    15     6    42 1   
    16     7    16 ar  
    17     7    18 ar  
    18     7    30 1   
    19     8    14 1   
    20     8    31 1   
    21     8    32 1   
    22     8    33 1   
    23     9    11 1   
    24     9    12 1   
    25     9    13 1   
    26     9    14 1   
    27    10    16 ar  
    28    10    17 ar  
    29    10    34 1   
    30    14    15 1   
    31    14    16 1   
    32    15    35 1   
    33    17    36 1   
    34    18    37 1   
    35    19    42 2   
    36    20    42 2   
    37    21    22 ar  
    38    21    42 1   
    39    22    23 ar  
    40    22    38 1   
    41    23    39 1   
    42    25    40 1   
    43    25    41 1   
@<TRIPOS>SUBSTRUCTURE
     1 3OQ         1 TEMP              0 ****  ****    0 ROOT
