@<TRIPOS>MOLECULE
3OR
   51    53     1     0     0
SMALL
No Charge or Current Charge


@<TRIPOS>ATOM
      1 C4           1.3320     0.4900     0.0800 ca         1 3OR      -0.139600
      2 C5           2.5030     0.4960     0.8810 ca         1 3OR      -0.046000
      3 C6           3.1930    -0.6920     1.1840 ca         1 3OR      -0.134300
      4 C7           4.4600    -0.6390     2.0330 c3         1 3OR       0.172300
      5 C13         -2.0890    -0.5560     0.4180 ca         1 3OR      -0.134000
      6 C15         -4.4200    -0.6830    -0.2760 ca         1 3OR       0.179000
      7 C17         -4.0170    -0.9210    -1.5990 ca         1 3OR      -0.084000
      8 C20          6.1420     0.6150     0.6110 c          1 3OR       0.568000
      9 C22          7.3230     0.5190    -0.3710 c6         1 3OR      -0.154400
     10 C24          6.9590    -1.9910    -0.2000 c6         1 3OR       0.125600
     11 C26          0.6770     1.8170    -0.2580 c          1 3OR       0.624700
     12 C1           0.8440    -0.7540    -0.4040 ca         1 3OR       0.291000
     13 N2          -0.2990    -0.8480    -1.2160 nu         1 3OR      -0.965000
     14 C3          -1.6690    -0.7830    -0.9070 ca         1 3OR       0.298000
     15 N8           5.6870    -0.5820     1.2170 n          1 3OR      -0.290300
     16 C9           2.7160    -1.9100     0.6770 ca         1 3OR       0.168000
     17 F10          3.3750    -3.0620     0.9460 f          1 3OR      -0.151000
     18 C11          1.5550    -1.9440    -0.1110 ca         1 3OR       0.092000
     19 F12          1.1180    -3.1370    -0.5910 f          1 3OR      -0.153000
     20 C14         -3.4600    -0.5020     0.7320 ca         1 3OR      -0.054000
     21 C18         -2.6490    -0.9740    -1.9130 ca         1 3OR       0.111000
     22 F19         -2.2790    -1.2140    -3.1950 f          1 3OR      -0.183000
     23 O21          5.6060     1.6930     0.8330 o          1 3OR      -0.570000
     24 C23          7.9950    -0.8760    -0.4510 c6         1 3OR      -0.106400
     25 O25          6.3960    -1.8230     1.1150 os         1 3OR      -0.219100
     26 O27         -0.5290     1.9760    -0.3880 o          1 3OR      -0.532100
     27 N28          1.5490     2.8970    -0.3310 ns         1 3OR      -0.389400
     28 O29          1.0310     4.1710    -0.7550 os         1 3OR      -0.208100
     29 C30          0.7770     5.0350     0.3690 c3         1 3OR       0.127600
     30 C31          0.2860     6.4080    -0.1530 c3         1 3OR       0.163600
     31 O32         -0.9990     6.2990    -0.7890 oh         1 3OR      -0.640000
     32 H5           2.8850     1.4300     1.2880 ha         1 3OR       0.143000
     33 H7           4.4280     0.2370     2.6950 h1         1 3OR       0.079200
     34 H7A          4.5040    -1.5230     2.6820 h1         1 3OR       0.079200
     35 H13         -1.3560    -0.4160     1.2070 ha         1 3OR       0.124000
     36 H17         -4.7610    -1.0660    -2.3760 ha         1 3OR       0.142000
     37 H22          6.9120     0.7830    -1.3540 hc         1 3OR       0.078200
     38 H22A         8.0420     1.3180    -0.1450 hc         1 3OR       0.078200
     39 H24          6.1560    -1.9610    -0.9510 h1         1 3OR       0.068200
     40 H24A         7.4450    -2.9760    -0.2530 h1         1 3OR       0.068200
     41 HN2         -0.1270    -1.3120    -2.1100 hn         1 3OR       0.499000
     42 H14         -3.7780    -0.3220     1.7560 ha         1 3OR       0.129000
     43 H23          8.4790    -1.0130    -1.4280 hc         1 3OR       0.061700
     44 H23A         8.7870    -0.9490     0.3060 hc         1 3OR       0.061700
     45 HN28         2.5590     2.7920    -0.3250 hn         1 3OR       0.343500
     46 H30          0.0190     4.6010     1.0340 h1         1 3OR       0.046700
     47 H30A         1.6960     5.1860     0.9500 h1         1 3OR       0.046700
     48 H31          0.2240     7.1010     0.6960 h1         1 3OR       0.025200
     49 H31A         1.0280     6.8110    -0.8540 h1         1 3OR       0.025200
     50 HO32        -1.2320     7.1950    -1.1190 ho         1 3OR       0.442000
     51 I16         -6.5280    -0.6000     0.2110 i          1 3OR      -0.308000
@<TRIPOS>BOND
     1     1     2 ar  
     2     1    11 1   
     3     1    12 ar  
     4     2     3 ar  
     5     2    32 1   
     6     3     4 1   
     7     3    16 ar  
     8     4    15 1   
     9     4    33 1   
    10     4    34 1   
    11     5    14 ar  
    12     5    20 ar  
    13     5    35 1   
    14     6     7 ar  
    15     6    20 ar  
    16     6    51 1   
    17     7    21 ar  
    18     7    36 1   
    19     8     9 1   
    20     8    15 1   
    21     8    23 2   
    22     9    24 1   
    23     9    37 1   
    24     9    38 1   
    25    10    24 1   
    26    10    25 1   
    27    10    39 1   
    28    10    40 1   
    29    11    26 2   
    30    11    27 1   
    31    12    13 1   
    32    12    18 ar  
    33    13    14 1   
    34    13    41 1   
    35    14    21 ar  
    36    15    25 1   
    37    16    17 1   
    38    16    18 ar  
    39    18    19 1   
    40    20    42 1   
    41    21    22 1   
    42    24    43 1   
    43    24    44 1   
    44    27    28 1   
    45    27    45 1   
    46    28    29 1   
    47    29    30 1   
    48    29    46 1   
    49    29    47 1   
    50    30    31 1   
    51    30    48 1   
    52    30    49 1   
    53    31    50 1   
@<TRIPOS>SUBSTRUCTURE
     1 3OR         1 TEMP              0 ****  ****    0 ROOT
