@<TRIPOS>MOLECULE
3OR
   51    53     1     0     0
SMALL
abcg2


@<TRIPOS>ATOM
      1 C4           1.2530     0.7830     0.0270 ca         1 3OR      -0.139600
      2 C5           2.3710     0.7650     0.8490 ca         1 3OR      -0.046000
      3 C6           3.1020    -0.3970     1.0630 ca         1 3OR      -0.134300
      4 C7           4.3200    -0.3990     1.9490 c3         1 3OR       0.172300
      5 C13         -1.8390    -0.8200     0.3530 ca         1 3OR      -0.134000
      6 C15         -4.1450    -1.2640    -0.1450 ca         1 3OR       0.179000
      7 C17         -3.8760    -1.1620    -1.5040 ca         1 3OR      -0.084000
      8 C20          6.0410     0.4530     0.4280 c          1 3OR       0.568000
      9 C22          7.2490     0.1510    -0.4270 c6         1 3OR      -0.154400
     10 C24          6.8170    -2.2030     0.1990 c6         1 3OR       0.125600
     11 C26          0.4900     2.0560    -0.1670 c          1 3OR       0.624700
     12 C1           0.8360    -0.3840    -0.6160 ca         1 3OR       0.291000
     13 N2          -0.2720    -0.4000    -1.4800 nu         1 3OR      -0.965000
     14 C3          -1.5330    -0.7050    -1.0010 ca         1 3OR       0.298000
     15 N8           5.5470    -0.5380     1.1960 n          1 3OR      -0.290300
     16 C9           2.6870    -1.5440     0.4140 ca         1 3OR       0.168000
     17 F10          3.3530    -2.6870     0.5750 f          1 3OR      -0.151000
     18 C11          1.5700    -1.5400    -0.4040 ca         1 3OR       0.092000
     19 F12          1.2010    -2.6730    -0.9980 f          1 3OR      -0.153000
     20 C14         -3.1300    -1.0940     0.7820 ca         1 3OR      -0.054000
     21 C18         -2.5870    -0.8830    -1.8970 ca         1 3OR       0.111000
     22 F19         -2.3180    -0.7800    -3.2110 f          1 3OR      -0.183000
     23 O21          5.4670     1.5330     0.3790 o          1 3OR      -0.570000
     24 C23          7.8870    -1.2170    -0.2060 c6         1 3OR      -0.106400
     25 O25          6.2010    -1.7370     1.3930 os         1 3OR      -0.219100
     26 O27         -0.7030     2.1600     0.0320 o          1 3OR      -0.532100
     27 N28          1.2910     3.0730    -0.5390 ns         1 3OR      -0.389400
     28 O29          0.7560     4.2910    -0.8060 os         1 3OR      -0.208100
     29 C30          0.9040     5.1730     0.3100 c3         1 3OR       0.127600
     30 C31          0.3970     6.5320    -0.0910 c3         1 3OR       0.163600
     31 O32         -0.9920     6.4740    -0.3120 oh         1 3OR      -0.640000
     32 H5           2.6870     1.6700     1.3500 ha         1 3OR       0.143000
     33 H7           4.3420     0.5270     2.5240 h1         1 3OR       0.079200
     34 H7A          4.2800    -1.2150     2.6690 h1         1 3OR       0.079200
     35 H13         -1.0630    -0.6970     1.0960 ha         1 3OR       0.124000
     36 H17         -4.6430    -1.2880    -2.2570 ha         1 3OR       0.142000
     37 H22          6.8970     0.2420    -1.4580 hc         1 3OR       0.078200
     38 H22A         7.9700     0.9570    -0.2830 hc         1 3OR       0.078200
     39 H24          6.0670    -2.3350    -0.5900 h1         1 3OR       0.068200
     40 H24A         7.2290    -3.1770     0.4550 h1         1 3OR       0.068200
     41 HN2         -0.0720    -0.7190    -2.4160 hn         1 3OR       0.499000
     42 H14         -3.3210    -1.1740     1.8440 ha         1 3OR       0.129000
     43 H23          8.3890    -1.5510    -1.1150 hc         1 3OR       0.061700
     44 H23A         8.6420    -1.1670     0.5800 hc         1 3OR       0.061700
     45 HN28         2.2310     2.9290    -0.8860 hn         1 3OR       0.343500
     46 H30          0.3510     4.7910     1.1740 h1         1 3OR       0.046700
     47 H30A         1.9580     5.2590     0.5870 h1         1 3OR       0.046700
     48 H31          0.6580     7.2200     0.7230 h1         1 3OR       0.025200
     49 H31A         0.9430     6.8750    -0.9800 h1         1 3OR       0.025200
     50 HO32        -1.2920     7.3550    -0.5560 ho         1 3OR       0.442000
     51 I16         -6.1010    -1.6800     0.4940 i          1 3OR      -0.308000
@<TRIPOS>BOND
     1     1     2 ar  
     2     1    11 1   
     3     1    12 ar  
     4     2     3 ar  
     5     2    32 1   
     6     3     4 1   
     7     3    16 ar  
     8     4    15 1   
     9     4    33 1   
    10     4    34 1   
    11     5    14 ar  
    12     5    20 ar  
    13     5    35 1   
    14     6     7 ar  
    15     6    20 ar  
    16     6    51 1   
    17     7    21 ar  
    18     7    36 1   
    19     8     9 1   
    20     8    15 1   
    21     8    23 2   
    22     9    24 1   
    23     9    37 1   
    24     9    38 1   
    25    10    24 1   
    26    10    25 1   
    27    10    39 1   
    28    10    40 1   
    29    11    26 2   
    30    11    27 1   
    31    12    13 1   
    32    12    18 ar  
    33    13    14 1   
    34    13    41 1   
    35    14    21 ar  
    36    15    25 1   
    37    16    17 1   
    38    16    18 ar  
    39    18    19 1   
    40    20    42 1   
    41    21    22 1   
    42    24    43 1   
    43    24    44 1   
    44    27    28 1   
    45    27    45 1   
    46    28    29 1   
    47    29    30 1   
    48    29    46 1   
    49    29    47 1   
    50    30    31 1   
    51    30    48 1   
    52    30    49 1   
    53    31    50 1   
@<TRIPOS>SUBSTRUCTURE
     1 3OR         1 TEMP              0 ****  ****    0 ROOT
