@<TRIPOS>MOLECULE
3OS
   49    50     1     0     0
SMALL
abcg2


@<TRIPOS>ATOM
      1 C4          10.2570    40.1900    -4.0460 ca         1 3OS      -0.226600
      2 C5          10.6100    39.4560    -2.9240 ca         1 3OS      -0.012000
      3 C6           9.7810    38.4720    -2.3790 ca         1 3OS      -0.200900
      4 C7           8.5720    38.2490    -3.0300 ca         1 3OS       0.207000
      5 C13          5.0200    42.0910    -7.2580 ca         1 3OS       0.025000
      6 C15          2.7280    42.9920    -8.1750 c1         1 3OS      -0.216000
      7 C17          7.3080    41.4810    -7.6060 ca         1 3OS       0.126000
      8 C22         12.7650    37.0970     0.9670 c3         1 3OS       0.165600
      9 C1           9.0310    39.9350    -4.7170 ca         1 3OS       0.369000
     10 N2           8.7100    40.5960    -5.8830 nu         1 3OS      -0.966000
     11 C3           7.4680    41.0750    -6.2760 ca         1 3OS       0.279000
     12 F8           7.7250    37.3060    -2.5850 f          1 3OS      -0.151000
     13 C9           8.2170    38.9370    -4.1760 ca         1 3OS       0.058000
     14 F10          7.0830    38.5730    -4.8020 f          1 3OS      -0.149000
     15 C11          6.3630    41.2250    -5.4320 ca         1 3OS      -0.132000
     16 C12          5.1610    41.7150    -5.9150 ca         1 3OS      -0.071000
     17 C14          3.7810    42.5860    -7.7540 cg         1 3OS      -0.129000
     18 C16          6.1310    41.9760    -8.1080 ca         1 3OS      -0.097000
     19 C19         10.1410    37.6840    -1.2060 ce         1 3OS       0.433800
     20 N20         11.3080    37.7750    -0.6990 n2         1 3OS      -0.343700
     21 O21         11.4560    36.9400     0.4010 os         1 3OS      -0.303000
     22 C23         12.9390    38.3930     1.7200 c3         1 3OS       0.133600
     23 O24         12.0700    38.3900     2.8530 oh         1 3OS      -0.658000
     24 C25         11.1850    41.2310    -4.5840 c          1 3OS       0.623700
     25 O26         11.3180    41.4420    -5.7900 o          1 3OS      -0.576100
     26 N27         11.8740    41.8990    -3.6340 ns         1 3OS      -0.382400
     27 O28         12.7010    42.9430    -3.9930 os         1 3OS      -0.211100
     28 C29         14.0800    42.6450    -3.6670 c3         1 3OS       0.131600
     29 C30         14.7000    41.5950    -4.5520 c3         1 3OS       0.141600
     30 O31         14.8530    42.1220    -5.8690 oh         1 3OS      -0.651000
     31 H5          11.5620    39.6380    -2.4480 ha         1 3OS       0.137000
     32 H15          1.8000    43.3550    -8.5500 ha         1 3OS       0.259000
     33 H22         13.5160    37.0220     0.1770 h1         1 3OS       0.065200
     34 H22A        12.8680    36.2470     1.6430 h1         1 3OS       0.065200
     35 HN2          9.5180    40.9870    -6.3560 hn         1 3OS       0.545000
     36 H11          6.4490    40.9690    -4.3860 ha         1 3OS       0.124000
     37 H12          4.3200    41.8170    -5.2430 ha         1 3OS       0.127000
     38 H16          6.0740    42.2640    -9.1480 ha         1 3OS       0.141000
     39 H19          9.4000    37.0130    -0.7790 h4         1 3OS       0.026800
     40 H23         13.9880    38.4670     2.0290 h1         1 3OS       0.028700
     41 H23A        12.7150    39.2370     1.0610 h1         1 3OS       0.028700
     42 HO24        12.1440    39.2440     3.2950 ho         1 3OS       0.441000
     43 HN27        11.5790    41.9170    -2.6670 hn         1 3OS       0.334500
     44 H29         14.5860    43.6030    -3.7920 h1         1 3OS       0.064700
     45 H29A        14.1420    42.3390    -2.6200 h1         1 3OS       0.064700
     46 H30         15.6740    41.3300    -4.1220 h1         1 3OS       0.028200
     47 H30A        14.0800    40.6940    -4.5590 h1         1 3OS       0.028200
     48 HO31        15.0930    41.4000    -6.4610 ho         1 3OS       0.447000
     49 F18          8.3840    41.3780    -8.4270 f          1 3OS      -0.176000
@<TRIPOS>BOND
     1     1     2 ar  
     2     1     9 ar  
     3     1    24 1   
     4     2     3 ar  
     5     2    31 1   
     6     3     4 ar  
     7     3    19 1   
     8     4    12 1   
     9     4    13 ar  
    10     5    16 ar  
    11     5    17 1   
    12     5    18 ar  
    13     6    17 3   
    14     6    32 1   
    15     7    11 ar  
    16     7    18 ar  
    17     7    49 1   
    18     8    21 1   
    19     8    22 1   
    20     8    33 1   
    21     8    34 1   
    22     9    10 1   
    23     9    13 ar  
    24    10    11 1   
    25    10    35 1   
    26    11    15 ar  
    27    13    14 1   
    28    15    16 ar  
    29    15    36 1   
    30    16    37 1   
    31    18    38 1   
    32    19    20 2   
    33    19    39 1   
    34    20    21 1   
    35    22    23 1   
    36    22    40 1   
    37    22    41 1   
    38    23    42 1   
    39    24    25 2   
    40    24    26 1   
    41    26    27 1   
    42    26    43 1   
    43    27    28 1   
    44    28    29 1   
    45    28    44 1   
    46    28    45 1   
    47    29    30 1   
    48    29    46 1   
    49    29    47 1   
    50    30    48 1   
@<TRIPOS>SUBSTRUCTURE
     1 3OS         1 TEMP              0 ****  ****    0 ROOT
