@<TRIPOS>MOLECULE
3OS
   49    50     1     0     0
SMALL
No Charge or Current Charge


@<TRIPOS>ATOM
      1 C4          10.2850    40.1090    -3.9940 ca         1 3OS      -0.226600
      2 C5          10.6450    39.3400    -2.8590 ca         1 3OS      -0.012000
      3 C6           9.8120    38.3070    -2.3780 ca         1 3OS      -0.200900
      4 C7           8.6140    38.0330    -3.0570 ca         1 3OS       0.207000
      5 C13          5.0300    42.1560    -7.2530 ca         1 3OS       0.025000
      6 C15          2.7510    43.1250    -8.1960 c1         1 3OS      -0.216000
      7 C17          7.3680    41.5710    -7.5870 ca         1 3OS       0.126000
      8 C22         12.7390    37.1100     1.2420 c3         1 3OS       0.165600
      9 C1           9.0560    39.8420    -4.6460 ca         1 3OS       0.369000
     10 N2           8.6840    40.6230    -5.7520 nu         1 3OS      -0.966000
     11 C3           7.4640    41.1110    -6.2510 ca         1 3OS       0.279000
     12 F8           7.8130    37.0260    -2.6340 f          1 3OS      -0.151000
     13 C9           8.2370    38.7810    -4.1820 ca         1 3OS       0.058000
     14 F10          7.0970    38.4390    -4.8370 f          1 3OS      -0.149000
     15 C11          6.3320    41.2120    -5.4180 ca         1 3OS      -0.132000
     16 C12          5.1200    41.7250    -5.9170 ca         1 3OS      -0.071000
     17 C14          3.7940    42.6800    -7.7590 cg         1 3OS      -0.129000
     18 C16          6.1590    42.0830    -8.0860 ca         1 3OS      -0.097000
     19 C19         10.1910    37.4880    -1.1840 ce         1 3OS       0.433800
     20 N20         11.3030    37.6880    -0.5440 n2         1 3OS      -0.343700
     21 O21         11.4940    36.8220     0.5580 os         1 3OS      -0.303000
     22 C23         12.6120    38.4170     2.0750 c3         1 3OS       0.133600
     23 O24         11.6640    38.2710     3.1500 oh         1 3OS      -0.658000
     24 C25         11.2230    41.1880    -4.4950 c          1 3OS       0.623700
     25 O26         11.2450    41.5510    -5.6670 o          1 3OS      -0.576100
     26 N27         12.1080    41.7050    -3.5610 ns         1 3OS      -0.382400
     27 O28         12.8710    42.8730    -3.9270 os         1 3OS      -0.211100
     28 C29         14.2950    42.6280    -3.8890 c3         1 3OS       0.131600
     29 C30         14.7350    41.8170    -5.1370 c3         1 3OS       0.141600
     30 O31         14.6670    42.6180    -6.3300 oh         1 3OS      -0.651000
     31 H5          11.5930    39.5210    -2.3560 ha         1 3OS       0.137000
     32 H15          1.8290    43.5110    -8.5840 ha         1 3OS       0.259000
     33 H22         13.5640    37.2100     0.5240 h1         1 3OS       0.065200
     34 H22A        12.9940    36.2870     1.9210 h1         1 3OS       0.065200
     35 HN2          9.5040    41.0370    -6.2150 hn         1 3OS       0.545000
     36 H11          6.3900    40.9070    -4.3780 ha         1 3OS       0.124000
     37 H12          4.2540    41.7920    -5.2620 ha         1 3OS       0.127000
     38 H16          6.1040    42.4230    -9.1170 ha         1 3OS       0.141000
     39 H19          9.4950    36.7080    -0.8670 h4         1 3OS       0.026800
     40 H23         13.6010    38.6610     2.4840 h1         1 3OS       0.028700
     41 H23A        12.3210    39.2470     1.4170 h1         1 3OS       0.028700
     42 HO24        11.6100    39.1400     3.6070 ho         1 3OS       0.441000
     43 HN27        11.9790    41.5500    -2.5670 hn         1 3OS       0.334500
     44 H29         14.8420    43.5790    -3.8780 h1         1 3OS       0.064700
     45 H29A        14.5690    42.0810    -2.9790 h1         1 3OS       0.064700
     46 H30         15.7670    41.4760    -4.9800 h1         1 3OS       0.028200
     47 H30A        14.1090    40.9200    -5.2350 h1         1 3OS       0.028200
     48 HO31        14.8470    42.0190    -7.0890 ho         1 3OS       0.447000
     49 F18          8.4470    41.5210    -8.4070 f          1 3OS      -0.176000
@<TRIPOS>BOND
     1     1     2 ar  
     2     1     9 ar  
     3     1    24 1   
     4     2     3 ar  
     5     2    31 1   
     6     3     4 ar  
     7     3    19 1   
     8     4    12 1   
     9     4    13 ar  
    10     5    16 ar  
    11     5    17 1   
    12     5    18 ar  
    13     6    17 3   
    14     6    32 1   
    15     7    11 ar  
    16     7    18 ar  
    17     7    49 1   
    18     8    21 1   
    19     8    22 1   
    20     8    33 1   
    21     8    34 1   
    22     9    10 1   
    23     9    13 ar  
    24    10    11 1   
    25    10    35 1   
    26    11    15 ar  
    27    13    14 1   
    28    15    16 ar  
    29    15    36 1   
    30    16    37 1   
    31    18    38 1   
    32    19    20 2   
    33    19    39 1   
    34    20    21 1   
    35    22    23 1   
    36    22    40 1   
    37    22    41 1   
    38    23    42 1   
    39    24    25 2   
    40    24    26 1   
    41    26    27 1   
    42    26    43 1   
    43    27    28 1   
    44    28    29 1   
    45    28    44 1   
    46    28    45 1   
    47    29    30 1   
    48    29    46 1   
    49    29    47 1   
    50    30    48 1   
@<TRIPOS>SUBSTRUCTURE
     1 3OS         1 TEMP              0 ****  ****    0 ROOT
