@<TRIPOS>MOLECULE
3OT
   66    70     1     0     0
SMALL
No Charge or Current Charge


@<TRIPOS>ATOM
      1 N3          -3.3070     3.0020    -0.2330 n3         1 3OT      -0.728600
      2 C4           4.4290    -0.7490     0.0890 cc         1 3OT       0.069800
      3 N2          -1.1780    -0.1690     0.2390 na         1 3OT      -0.178600
      4 C7           7.3310    -1.9870     0.3080 cc         1 3OT      -0.300200
      5 C6           6.1270    -2.6020     0.5520 cd         1 3OT      -0.087000
      6 C9           2.9600    -0.5430     0.1640 ca         1 3OT      -0.094800
      7 C13          0.6670    -1.3110    -0.1930 ca         1 3OT       0.068400
      8 C20         -4.7030     4.9100    -1.1370 c6         1 3OT       0.153100
      9 C21         -3.6330     3.8210    -1.4430 c6         1 3OT       0.129300
     10 C8           7.6810    -0.6140    -0.0650 c          1 3OT       0.571500
     11 C18         -2.9410     3.8930     0.9170 c6         1 3OT       0.129300
     12 C16         -2.0880     0.9260     0.6190 c3         1 3OT       0.074600
     13 C19         -4.0230     4.9840     1.1720 c6         1 3OT       0.153100
     14 C26         -6.4920    -4.8060    -0.2190 ca         1 3OT      -0.108500
     15 C1           6.4700     2.9020    -0.8510 c3         1 3OT       0.141900
     16 C2           6.6660     0.4660    -0.2800 cd         1 3OT       0.080900
     17 C3           5.2790     0.3780    -0.2050 cc         1 3OT      -0.287000
     18 C5           4.8140    -2.0320     0.4620 cd         1 3OT      -0.219000
     19 O2           8.8770    -0.3640    -0.1970 o          1 3OT      -0.526100
     20 C10          2.4270     0.6870     0.6440 ca         1 3OT      -0.083000
     21 C11          1.0360     0.9040     0.7110 ca         1 3OT      -0.116000
     22 C12          0.1890    -0.1240     0.2830 ca         1 3OT      -0.075200
     23 C14          2.0480    -1.5490    -0.2650 ca         1 3OT      -0.030000
     24 N1          -0.3560    -2.1660    -0.5760 nc         1 3OT      -0.571100
     25 C15         -1.4550    -1.4350    -0.3040 cd         1 3OT       0.423800
     26 C17         -2.3040     1.9450    -0.5220 c3         1 3OT       0.148800
     27 O3          -4.2700     5.7430    -0.0350 os         1 3OT      -0.447000
     28 C22         -2.8430    -1.9570    -0.5720 c3         1 3OT      -0.096700
     29 C23         -3.5010    -2.5750     0.6790 c3         1 3OT      -0.029100
     30 C24         -4.9240    -3.0420     0.4030 ca         1 3OT      -0.086300
     31 C25         -5.1780    -4.3790     0.0420 ca         1 3OT      -0.105500
     32 C27         -7.5590    -3.8970    -0.1210 ca         1 3OT      -0.108000
     33 C28         -7.3110    -2.5610     0.2370 ca         1 3OT      -0.108500
     34 C29         -5.9970    -2.1350     0.4970 ca         1 3OT      -0.105500
     35 H7           8.2230    -2.5950     0.4210 ha         1 3OT       0.195000
     36 H6           6.1740    -3.6470     0.8540 ha         1 3OT       0.174000
     37 H19         -4.8620     5.5400    -2.0240 h1         1 3OT       0.052950
     38 H20         -5.6600     4.4340    -0.8780 h1         1 3OT       0.052950
     39 H21         -2.7270     4.3170    -1.8240 h1         1 3OT       0.042450
     40 H22         -4.0100     3.1760    -2.2510 h1         1 3OT       0.042450
     41 H16         -2.8220     3.3090     1.8400 h1         1 3OT       0.042450
     42 H15         -1.9790     4.3900     0.7230 h1         1 3OT       0.042450
     43 H12         -3.0570     0.5010     0.9050 h1         1 3OT       0.068200
     44 H11         -1.6760     1.4330     1.5000 h1         1 3OT       0.068200
     45 H17         -4.9600     4.5130     1.5020 h1         1 3OT       0.052950
     46 H18         -3.6860     5.6670     1.9650 h1         1 3OT       0.052950
     47 H28         -6.6820    -5.8400    -0.4970 ha         1 3OT       0.113500
     48 H2           7.1490     3.7340    -1.0700 h1         1 3OT       0.045367
     49 H1           5.8030     2.7780    -1.7130 h1         1 3OT       0.045367
     50 H3           5.8740     3.1780     0.0280 h1         1 3OT       0.045367
     51 H4           4.7070     1.2620    -0.4420 ha         1 3OT       0.180000
     52 H5           4.0340    -2.7280     0.7510 ha         1 3OT       0.185000
     53 H8           3.0860     1.4730     1.0050 ha         1 3OT       0.116000
     54 H9           0.6420     1.8440     1.0880 ha         1 3OT       0.118000
     55 H10          2.3950    -2.4890    -0.6840 ha         1 3OT       0.134000
     56 H13         -2.6220     1.3800    -1.4090 h1         1 3OT       0.045700
     57 H14         -1.3360     2.4030    -0.7690 h1         1 3OT       0.045700
     58 H23         -3.4750    -1.1450    -0.9510 hc         1 3OT       0.068700
     59 H24         -2.8090    -2.7110    -1.3670 hc         1 3OT       0.068700
     60 H25         -2.8860    -3.4140     1.0300 hc         1 3OT       0.055200
     61 H26         -3.5010    -1.8390     1.4920 hc         1 3OT       0.055200
     62 H27         -4.3570    -5.0890    -0.0390 ha         1 3OT       0.112000
     63 H29         -8.5760    -4.2280    -0.3230 ha         1 3OT       0.113000
     64 H30         -8.1360    -1.8560     0.3110 ha         1 3OT       0.113500
     65 H31         -5.8140    -1.0980     0.7710 ha         1 3OT       0.112000
     66 O1           7.2260     1.6980    -0.6050 os         1 3OT      -0.311100
@<TRIPOS>BOND
     1     1     9 1   
     2     1    11 1   
     3     1    26 1   
     4     2     6 1   
     5     2    17 1   
     6     2    18 2   
     7     3    12 1   
     8     3    22 1   
     9     3    25 1   
    10     4     5 2   
    11     4    10 1   
    12     4    35 1   
    13     5    18 1   
    14     5    36 1   
    15     6    20 ar  
    16     6    23 ar  
    17     7    22 ar  
    18     7    23 ar  
    19     7    24 1   
    20     8     9 1   
    21     8    27 1   
    22     8    37 1   
    23     8    38 1   
    24     9    39 1   
    25     9    40 1   
    26    10    16 1   
    27    10    19 2   
    28    11    13 1   
    29    11    41 1   
    30    11    42 1   
    31    12    26 1   
    32    12    43 1   
    33    12    44 1   
    34    13    27 1   
    35    13    45 1   
    36    13    46 1   
    37    14    31 ar  
    38    14    32 ar  
    39    14    47 1   
    40    15    48 1   
    41    15    49 1   
    42    15    50 1   
    43    15    66 1   
    44    16    17 2   
    45    16    66 1   
    46    17    51 1   
    47    18    52 1   
    48    20    21 ar  
    49    20    53 1   
    50    21    22 ar  
    51    21    54 1   
    52    23    55 1   
    53    24    25 2   
    54    25    28 1   
    55    26    56 1   
    56    26    57 1   
    57    28    29 1   
    58    28    58 1   
    59    28    59 1   
    60    29    30 1   
    61    29    60 1   
    62    29    61 1   
    63    30    31 ar  
    64    30    34 ar  
    65    31    62 1   
    66    32    33 ar  
    67    32    63 1   
    68    33    34 ar  
    69    33    64 1   
    70    34    65 1   
@<TRIPOS>SUBSTRUCTURE
     1 3OT         1 TEMP              0 ****  ****    0 ROOT
