@<TRIPOS>MOLECULE
3OT
   66    70     1     0     0
SMALL
abcg2


@<TRIPOS>ATOM
      1 N3          -3.1760     2.9290    -0.1700 n3         1 3OT      -0.728600
      2 C4           4.3590    -0.7780     0.2840 cc         1 3OT       0.069800
      3 N2          -1.1910    -0.1970     0.2520 na         1 3OT      -0.178600
      4 C7           7.3300    -1.7850     0.4380 cc         1 3OT      -0.300200
      5 C6           6.1700    -2.4370     0.7200 cd         1 3OT      -0.087000
      6 C9           2.8920    -0.5610     0.3020 ca         1 3OT      -0.094800
      7 C13          0.6660    -1.3080    -0.1580 ca         1 3OT       0.068400
      8 C20         -4.7980     4.6060    -0.8470 c6         1 3OT       0.153100
      9 C21         -3.7940     3.5710    -1.3170 c6         1 3OT       0.129300
     10 C8           7.5930    -0.4400    -0.0040 c          1 3OT       0.571500
     11 C18         -2.5530     3.9310     0.6790 c6         1 3OT       0.129300
     12 C16         -2.1320     0.8490     0.5850 c3         1 3OT       0.074600
     13 C19         -3.5800     4.9660     1.0980 c6         1 3OT       0.153100
     14 C26         -6.4520    -4.5900    -0.5100 ca         1 3OT      -0.108500
     15 C1           6.1650     2.7480    -1.0490 c3         1 3OT       0.141900
     16 C2           6.4870     0.5100    -0.2810 cd         1 3OT       0.080900
     17 C3           5.1400     0.3300    -0.1540 cc         1 3OT      -0.287000
     18 C5           4.8290    -2.0030     0.6730 cd         1 3OT      -0.219000
     19 O2           8.7460    -0.0580    -0.1760 o          1 3OT      -0.526100
     20 C10          2.3650     0.6390     0.8210 ca         1 3OT      -0.083000
     21 C11          1.0060     0.8840     0.8690 ca         1 3OT      -0.116000
     22 C12          0.1700    -0.1070     0.3710 ca         1 3OT      -0.075200
     23 C14          2.0370    -1.5420    -0.1900 ca         1 3OT      -0.030000
     24 N1          -0.3750    -2.0880    -0.5960 nc         1 3OT      -0.571100
     25 C15         -1.4550    -1.3990    -0.3450 cd         1 3OT       0.423800
     26 C17         -2.2720     1.8660    -0.5450 c3         1 3OT       0.148800
     27 O3          -4.1930     5.5730    -0.0180 os         1 3OT      -0.447000
     28 C22         -2.8410    -1.8700    -0.6140 c3         1 3OT      -0.096700
     29 C23         -3.4930    -2.5000     0.6280 c3         1 3OT      -0.029100
     30 C24         -4.9000    -2.9390     0.3340 ca         1 3OT      -0.086300
     31 C25         -5.1560    -4.2010    -0.1980 ca         1 3OT      -0.105500
     32 C27         -7.5130    -3.7190    -0.2950 ca         1 3OT      -0.108000
     33 C28         -7.2680    -2.4580     0.2340 ca         1 3OT      -0.108500
     34 C29         -5.9700    -2.0740     0.5430 ca         1 3OT      -0.105500
     35 H7           8.2390    -2.3610     0.5720 ha         1 3OT       0.195000
     36 H6           6.2960    -3.4620     1.0490 ha         1 3OT       0.174000
     37 H19         -5.2260     5.1290    -1.7030 h1         1 3OT       0.052950
     38 H20         -5.6160     4.1010    -0.3140 h1         1 3OT       0.052950
     39 H21         -3.0500     4.0540    -1.9720 h1         1 3OT       0.042450
     40 H22         -4.3140     2.8200    -1.9160 h1         1 3OT       0.042450
     41 H16         -2.1500     3.4670     1.5830 h1         1 3OT       0.042450
     42 H15         -1.7110     4.4270     0.1650 h1         1 3OT       0.042450
     43 H12         -3.1030     0.4060     0.8000 h1         1 3OT       0.068200
     44 H11         -1.7970     1.3170     1.5110 h1         1 3OT       0.068200
     45 H17         -4.3350     4.4870     1.7380 h1         1 3OT       0.052950
     46 H18         -3.1000     5.7550     1.6780 h1         1 3OT       0.052950
     47 H28         -6.6360    -5.5750    -0.9190 ha         1 3OT       0.113500
     48 H2           6.8250     3.5500    -1.3670 h1         1 3OT       0.045367
     49 H1           5.4820     2.5030    -1.8660 h1         1 3OT       0.045367
     50 H3           5.5840     3.0860    -0.1870 h1         1 3OT       0.045367
     51 H4           4.5350     1.1740    -0.4590 ha         1 3OT       0.180000
     52 H5           4.0970    -2.7310     0.9990 ha         1 3OT       0.185000
     53 H8           3.0380     1.3880     1.2180 ha         1 3OT       0.116000
     54 H9           0.6270     1.8120     1.2790 ha         1 3OT       0.118000
     55 H10          2.4240    -2.4590    -0.6150 ha         1 3OT       0.134000
     56 H13         -2.6830     1.3500    -1.4170 h1         1 3OT       0.045700
     57 H14         -1.2790     2.2410    -0.8420 h1         1 3OT       0.045700
     58 H23         -3.4620    -1.0500    -0.9830 hc         1 3OT       0.068700
     59 H24         -2.7930    -2.6110    -1.4120 hc         1 3OT       0.068700
     60 H25         -2.8890    -3.3500     0.9510 hc         1 3OT       0.055200
     61 H26         -3.4950    -1.7840     1.4540 hc         1 3OT       0.055200
     62 H27         -4.3350    -4.8890    -0.3640 ha         1 3OT       0.112000
     63 H29         -8.5240    -4.0230    -0.5330 ha         1 3OT       0.113000
     64 H30         -8.0890    -1.7740     0.4080 ha         1 3OT       0.113500
     65 H31         -5.7880    -1.0890     0.9600 ha         1 3OT       0.112000
     66 O1           7.0030     1.6550    -0.7190 os         1 3OT      -0.311100
@<TRIPOS>BOND
     1     1     9 1   
     2     1    11 1   
     3     1    26 1   
     4     2     6 1   
     5     2    17 1   
     6     2    18 2   
     7     3    12 1   
     8     3    22 1   
     9     3    25 1   
    10     4     5 2   
    11     4    10 1   
    12     4    35 1   
    13     5    18 1   
    14     5    36 1   
    15     6    20 ar  
    16     6    23 ar  
    17     7    22 ar  
    18     7    23 ar  
    19     7    24 1   
    20     8     9 1   
    21     8    27 1   
    22     8    37 1   
    23     8    38 1   
    24     9    39 1   
    25     9    40 1   
    26    10    16 1   
    27    10    19 2   
    28    11    13 1   
    29    11    41 1   
    30    11    42 1   
    31    12    26 1   
    32    12    43 1   
    33    12    44 1   
    34    13    27 1   
    35    13    45 1   
    36    13    46 1   
    37    14    31 ar  
    38    14    32 ar  
    39    14    47 1   
    40    15    48 1   
    41    15    49 1   
    42    15    50 1   
    43    15    66 1   
    44    16    17 2   
    45    16    66 1   
    46    17    51 1   
    47    18    52 1   
    48    20    21 ar  
    49    20    53 1   
    50    21    22 ar  
    51    21    54 1   
    52    23    55 1   
    53    24    25 2   
    54    25    28 1   
    55    26    56 1   
    56    26    57 1   
    57    28    29 1   
    58    28    58 1   
    59    28    59 1   
    60    29    30 1   
    61    29    60 1   
    62    29    61 1   
    63    30    31 ar  
    64    30    34 ar  
    65    31    62 1   
    66    32    33 ar  
    67    32    63 1   
    68    33    34 ar  
    69    33    64 1   
    70    34    65 1   
@<TRIPOS>SUBSTRUCTURE
     1 3OT         1 TEMP              0 ****  ****    0 ROOT
