@<TRIPOS>MOLECULE
3OU
   81    86     1     0     0
SMALL
No Charge or Current Charge


@<TRIPOS>ATOM
      1 C1          21.7920     5.3830     1.0260 c          1 3OU       0.525200
      2 C2          23.2250     5.4480     0.5790 cc         1 3OU       0.026800
      3 C3          24.2320     5.7930     1.4600 cd         1 3OU      -0.137000
      4 C4          23.9400     6.1410     2.8330 cd         1 3OU      -0.107200
      5 C5          22.6090     6.1330     3.2120 cc         1 3OU      -0.052400
      6 N6          21.5640     5.7610     2.3630 n          1 3OU      -0.253000
      7 C7          20.1680     5.7400     2.8590 c3         1 3OU       0.079300
      8 O8          20.8790     5.0280     0.2820 o          1 3OU      -0.596000
      9 N9          23.4800     5.0670    -0.7450 nu         1 3OU      -0.786900
     10 C10         24.2740     5.5850    -1.7520 ca         1 3OU       0.637900
     11 C11         24.1740     5.0890    -3.0570 ca         1 3OU      -0.233000
     12 C12         24.9790     5.6430    -4.0620 ca         1 3OU      -0.008000
     13 C13         25.8440     6.6960    -3.7090 ca         1 3OU      -0.258600
     14 C14         25.8850     7.1090    -2.3690 ca         1 3OU       0.431900
     15 N15         25.1060     6.5730    -1.4040 nb         1 3OU      -0.748000
     16 C16         26.7740     7.3470    -4.6850 c          1 3OU       0.630700
     17 O17         27.8660     7.7600    -4.3170 o          1 3OU      -0.603100
     18 N18         26.4120     7.3670    -6.0500 n          1 3OU      -0.415800
     19 C19         27.4490     7.7410    -7.0640 c6         1 3OU       0.063500
     20 C20         27.0140     7.4850    -8.5300 c6         1 3OU       0.138100
     21 O21         25.7240     8.0760    -8.7820 os         1 3OU      -0.454000
     22 C22         24.6940     7.5290    -7.9350 c6         1 3OU       0.138100
     23 C23         25.0270     7.7950    -6.4440 c6         1 3OU       0.063500
     24 C24         25.0310     6.5750     3.7460 ca         1 3OU      -0.010800
     25 C25         26.2600     5.8860     3.6460 ca         1 3OU      -0.101000
     26 C26         27.3380     6.1930     4.4840 ca         1 3OU      -0.096000
     27 C27         27.2160     7.2170     5.4260 ca         1 3OU      -0.109000
     28 C28         26.0370     7.9790     5.5030 ca         1 3OU      -0.023000
     29 C29         24.9110     7.6340     4.7020 ca         1 3OU      -0.063300
     30 C30         23.6950     8.5790     4.7220 c3         1 3OU       0.206900
     31 N31         25.9210     8.9260     6.5770 n          1 3OU      -0.254400
     32 C32         26.9260    10.0020     6.6390 c6         1 3OU       0.114000
     33 C33         26.2580    11.3110     7.0860 c6         1 3OU      -0.050100
     34 C34         25.2180     8.6400     7.7690 c          1 3OU       0.587600
     35 C35         24.9950     9.8070     8.7080 ca         1 3OU      -0.211600
     36 C36         25.4770    11.0940     8.3810 ca         1 3OU       0.000700
     37 C37         25.2420    12.1750     9.2490 ca         1 3OU      -0.210000
     38 C38         24.5370    11.9970    10.4540 ca         1 3OU       0.368000
     39 C39         24.0650    10.7110    10.7760 ca         1 3OU      -0.212000
     40 C40         24.2880     9.6260     9.9130 ca         1 3OU      -0.001000
     41 N41         24.3060    13.0910    11.3260 nh         1 3OU      -0.833400
     42 C42         24.1990    14.4790    10.8160 c3         1 3OU       0.219100
     43 C43         24.1620    12.8980    12.7890 c3         1 3OU       0.219100
     44 O44         24.7850     7.5200     8.0200 o          1 3OU      -0.549000
     45 O45         22.7370     8.2170     5.7240 oh         1 3OU      -0.658000
     46 H1          25.2550     5.8170     1.1010 ha         1 3OU       0.227000
     47 H2          22.2580     6.3490     4.2140 h4         1 3OU       0.232000
     48 H3          20.1110     6.1100     3.8900 h1         1 3OU       0.058033
     49 H4          19.5400     6.3780     2.2240 h1         1 3OU       0.058033
     50 H5          19.7820     4.7130     2.8290 h1         1 3OU       0.058033
     51 H6          22.7110     4.5250    -1.1420 hn         1 3OU       0.525000
     52 H7          23.4910     4.2770    -3.2880 ha         1 3OU       0.129000
     53 H8          24.9400     5.2490    -5.0760 ha         1 3OU       0.121000
     54 H9          26.5530     7.9090    -2.0490 h4         1 3OU       0.033100
     55 H10         28.3710     7.1760    -6.8680 h1         1 3OU       0.063950
     56 H11         27.6910     8.8070    -6.9480 h1         1 3OU       0.063950
     57 H12         26.9600     6.4030    -8.7220 h1         1 3OU       0.054700
     58 H13         27.7510     7.9170    -9.2210 h1         1 3OU       0.054700
     59 H14         23.7310     7.9930    -8.1920 h1         1 3OU       0.054700
     60 H15         24.6110     6.4470    -8.1150 h1         1 3OU       0.054700
     61 H16         24.9340     8.8740    -6.2560 h1         1 3OU       0.063950
     62 H17         24.2660     7.3060    -5.8250 h1         1 3OU       0.063950
     63 H18         26.3730     5.0650     2.9420 ha         1 3OU       0.123000
     64 H19         28.2620     5.6220     4.4150 ha         1 3OU       0.119000
     65 H20         28.0480     7.4260     6.0950 ha         1 3OU       0.123000
     66 H21         24.0470     9.6030     4.9010 h1         1 3OU       0.031200
     67 H22         23.2240     8.6000     3.7310 h1         1 3OU       0.031200
     68 H23         27.7130     9.7210     7.3540 h1         1 3OU       0.046700
     69 H24         27.3940    10.1410     5.6540 h1         1 3OU       0.046700
     70 H25         27.0220    12.0890     7.2200 hc         1 3OU       0.059700
     71 H26         25.5750    11.6660     6.3020 hc         1 3OU       0.059700
     72 H27         25.6270    13.1550     8.9860 ha         1 3OU       0.112000
     73 H28         23.5070    10.5450    11.6910 ha         1 3OU       0.117000
     74 H29         23.9030     8.6440    10.1840 ha         1 3OU       0.134000
     75 H30         23.5990    15.1000    11.4950 h1         1 3OU       0.038700
     76 H31         25.1940    14.9320    10.7180 h1         1 3OU       0.038700
     77 H32         23.7060    14.4920     9.8340 h1         1 3OU       0.038700
     78 H33         24.4380    13.8120    13.3330 h1         1 3OU       0.038700
     79 H34         23.1260    12.6400    13.0440 h1         1 3OU       0.038700
     80 H35         24.8230    12.0930    13.1400 h1         1 3OU       0.038700
     81 H36         22.0620     8.9300     5.7430 ho         1 3OU       0.436000
@<TRIPOS>BOND
     1     1     2 1   
     2     1     6 1   
     3     1     8 2   
     4     2     3 2   
     5     2     9 1   
     6     3     4 1   
     7     3    46 1   
     8     4     5 2   
     9     4    24 1   
    10     5     6 1   
    11     5    47 1   
    12     6     7 1   
    13     7    48 1   
    14     7    49 1   
    15     7    50 1   
    16     9    10 1   
    17     9    51 1   
    18    10    11 ar  
    19    10    15 ar  
    20    11    12 ar  
    21    11    52 1   
    22    12    13 ar  
    23    12    53 1   
    24    13    14 ar  
    25    13    16 1   
    26    14    15 ar  
    27    14    54 1   
    28    16    17 2   
    29    16    18 1   
    30    18    19 1   
    31    18    23 1   
    32    19    20 1   
    33    19    55 1   
    34    19    56 1   
    35    20    21 1   
    36    20    57 1   
    37    20    58 1   
    38    21    22 1   
    39    22    23 1   
    40    22    59 1   
    41    22    60 1   
    42    23    61 1   
    43    23    62 1   
    44    24    25 ar  
    45    24    29 ar  
    46    25    26 ar  
    47    25    63 1   
    48    26    27 ar  
    49    26    64 1   
    50    27    28 ar  
    51    27    65 1   
    52    28    29 ar  
    53    28    31 1   
    54    29    30 1   
    55    30    45 1   
    56    30    66 1   
    57    30    67 1   
    58    31    32 1   
    59    31    34 1   
    60    32    33 1   
    61    32    68 1   
    62    32    69 1   
    63    33    36 1   
    64    33    70 1   
    65    33    71 1   
    66    34    35 1   
    67    34    44 2   
    68    35    36 ar  
    69    35    40 ar  
    70    36    37 ar  
    71    37    38 ar  
    72    37    72 1   
    73    38    39 ar  
    74    38    41 1   
    75    39    40 ar  
    76    39    73 1   
    77    40    74 1   
    78    41    42 1   
    79    41    43 1   
    80    42    75 1   
    81    42    76 1   
    82    42    77 1   
    83    43    78 1   
    84    43    79 1   
    85    43    80 1   
    86    45    81 1   
@<TRIPOS>SUBSTRUCTURE
     1 3OU         1 TEMP              0 ****  ****    0 ROOT
