@<TRIPOS>MOLECULE
3OU
   81    86     1     0     0
SMALL
abcg2


@<TRIPOS>ATOM
      1 C1          21.5830     5.2480     0.9390 c          1 3OU       0.525200
      2 C2          22.8620     5.6980     0.4100 cc         1 3OU       0.026800
      3 C3          23.8230     6.1970     1.2500 cd         1 3OU      -0.137000
      4 C4          23.5870     6.2890     2.6470 cd         1 3OU      -0.107200
      5 C5          22.3870     5.8590     3.1310 cc         1 3OU      -0.052400
      6 N6          21.4240     5.3570     2.3030 n          1 3OU      -0.253000
      7 C7          20.1520     4.8960     2.8640 c3         1 3OU       0.079300
      8 O8          20.6790     4.7900     0.2180 o          1 3OU      -0.596000
      9 N9          22.9300     5.5510    -0.9650 nu         1 3OU      -0.786900
     10 C10         23.9380     5.8320    -1.8500 ca         1 3OU       0.637900
     11 C11         23.7370     5.5300    -3.2140 ca         1 3OU      -0.233000
     12 C12         24.7370     5.8210    -4.1100 ca         1 3OU      -0.008000
     13 C13         25.9340     6.3940    -3.6540 ca         1 3OU      -0.258600
     14 C14         26.0410     6.6310    -2.2910 ca         1 3OU       0.431900
     15 N15         25.0760     6.3770    -1.4060 nb         1 3OU      -0.748000
     16 C16         27.1120     6.6590    -4.5290 c          1 3OU       0.630700
     17 O17         28.2280     6.2500    -4.1880 o          1 3OU      -0.603100
     18 N18         26.9130     7.3220    -5.6940 n          1 3OU      -0.415800
     19 C19         28.0100     7.4860    -6.6440 c6         1 3OU       0.063500
     20 C20         27.4980     7.2150    -8.0520 c6         1 3OU       0.138100
     21 O21         26.3800     8.0390    -8.3740 os         1 3OU      -0.454000
     22 C22         25.3080     7.8380    -7.4550 c6         1 3OU       0.138100
     23 C23         25.7480     8.1380    -6.0320 c6         1 3OU       0.063500
     24 C24         24.6590     6.7900     3.5400 ca         1 3OU      -0.010800
     25 C25         25.9470     6.2680     3.3730 ca         1 3OU      -0.101000
     26 C26         27.0000     6.6800     4.1730 ca         1 3OU      -0.096000
     27 C27         26.7830     7.6310     5.1610 ca         1 3OU      -0.109000
     28 C28         25.5140     8.1680     5.3320 ca         1 3OU      -0.023000
     29 C29         24.4380     7.7710     4.5270 ca         1 3OU      -0.063300
     30 C30         23.0970     8.4270     4.7040 c3         1 3OU       0.206900
     31 N31         25.3320     9.1890     6.3200 n          1 3OU      -0.254400
     32 C32         25.6870    10.5610     5.9280 c6         1 3OU       0.114000
     33 C33         24.9050    11.5710     6.7460 c6         1 3OU      -0.050100
     34 C34         25.1990     8.8340     7.6340 c          1 3OU       0.587600
     35 C35         25.1670     9.9400     8.6130 ca         1 3OU      -0.211600
     36 C36         25.0410    11.2790     8.2140 ca         1 3OU       0.000700
     37 C37         25.0010    12.2910     9.1570 ca         1 3OU      -0.210000
     38 C38         25.0910    12.0150    10.5410 ca         1 3OU       0.368000
     39 C39         25.2020    10.6570    10.9300 ca         1 3OU      -0.212000
     40 C40         25.2370     9.6570     9.9810 ca         1 3OU      -0.001000
     41 N41         25.0780    13.0180    11.4650 nh         1 3OU      -0.833400
     42 C42         24.8600    14.3930    11.0500 c3         1 3OU       0.219100
     43 C43         25.0880    12.7060    12.8850 c3         1 3OU       0.219100
     44 O44         25.1060     7.6480     7.9730 o          1 3OU      -0.549000
     45 O45         22.3350     7.6970     5.6830 oh         1 3OU      -0.658000
     46 H1          24.7580     6.5350     0.8390 ha         1 3OU       0.227000
     47 H2          22.1360     5.8920     4.1790 h4         1 3OU       0.232000
     48 H3          20.1820     5.0290     3.9410 h1         1 3OU       0.058033
     49 H4          19.3310     5.4710     2.4410 h1         1 3OU       0.058033
     50 H5          20.0020     3.8440     2.6240 h1         1 3OU       0.058033
     51 H6          22.0840     5.1470    -1.3470 hn         1 3OU       0.525000
     52 H7          22.8120     5.0720    -3.5390 ha         1 3OU       0.129000
     53 H8          24.6050     5.5880    -5.1590 ha         1 3OU       0.121000
     54 H9          26.9540     7.0590    -1.8910 h4         1 3OU       0.033100
     55 H10         28.8070     6.7930    -6.3900 h1         1 3OU       0.063950
     56 H11         28.4000     8.5080    -6.5780 h1         1 3OU       0.063950
     57 H12         27.2140     6.1590    -8.1420 h1         1 3OU       0.054700
     58 H13         28.2740     7.4370    -8.7830 h1         1 3OU       0.054700
     59 H14         24.5070     8.5140    -7.7530 h1         1 3OU       0.054700
     60 H15         24.9490     6.8030    -7.5250 h1         1 3OU       0.054700
     61 H16         26.0320     9.1930    -5.9580 h1         1 3OU       0.063950
     62 H17         24.9360     7.9600    -5.3360 h1         1 3OU       0.063950
     63 H18         26.1140     5.5160     2.6120 ha         1 3OU       0.123000
     64 H19         27.9860     6.2560     4.0340 ha         1 3OU       0.119000
     65 H20         27.5890     7.9630     5.8020 ha         1 3OU       0.123000
     66 H21         23.2270     9.4560     5.0380 h1         1 3OU       0.031200
     67 H22         22.5650     8.4390     3.7500 h1         1 3OU       0.031200
     68 H23         26.7650    10.7130     6.0570 h1         1 3OU       0.046700
     69 H24         25.4610    10.6680     4.8690 h1         1 3OU       0.046700
     70 H25         25.2530    12.5790     6.5160 hc         1 3OU       0.059700
     71 H26         23.8480    11.5200     6.4640 hc         1 3OU       0.059700
     72 H27         24.9020    13.3100     8.8110 ha         1 3OU       0.112000
     73 H28         25.2610    10.3920    11.9740 ha         1 3OU       0.117000
     74 H29         25.3220     8.6260    10.2960 ha         1 3OU       0.134000
     75 H30         24.9050    15.0370    11.9230 h1         1 3OU       0.038700
     76 H31         25.6280    14.7210    10.3450 h1         1 3OU       0.038700
     77 H32         23.8820    14.5260    10.5720 h1         1 3OU       0.038700
     78 H33         25.1220    13.6330    13.4490 h1         1 3OU       0.038700
     79 H34         24.1960    12.1480    13.1880 h1         1 3OU       0.038700
     80 H35         25.9670    12.1140    13.1520 h1         1 3OU       0.038700
     81 H36         21.4860     8.1440     5.7900 ho         1 3OU       0.436000
@<TRIPOS>BOND
     1     1     2 1   
     2     1     6 1   
     3     1     8 2   
     4     2     3 2   
     5     2     9 1   
     6     3     4 1   
     7     3    46 1   
     8     4     5 2   
     9     4    24 1   
    10     5     6 1   
    11     5    47 1   
    12     6     7 1   
    13     7    48 1   
    14     7    49 1   
    15     7    50 1   
    16     9    10 1   
    17     9    51 1   
    18    10    11 ar  
    19    10    15 ar  
    20    11    12 ar  
    21    11    52 1   
    22    12    13 ar  
    23    12    53 1   
    24    13    14 ar  
    25    13    16 1   
    26    14    15 ar  
    27    14    54 1   
    28    16    17 2   
    29    16    18 1   
    30    18    19 1   
    31    18    23 1   
    32    19    20 1   
    33    19    55 1   
    34    19    56 1   
    35    20    21 1   
    36    20    57 1   
    37    20    58 1   
    38    21    22 1   
    39    22    23 1   
    40    22    59 1   
    41    22    60 1   
    42    23    61 1   
    43    23    62 1   
    44    24    25 ar  
    45    24    29 ar  
    46    25    26 ar  
    47    25    63 1   
    48    26    27 ar  
    49    26    64 1   
    50    27    28 ar  
    51    27    65 1   
    52    28    29 ar  
    53    28    31 1   
    54    29    30 1   
    55    30    45 1   
    56    30    66 1   
    57    30    67 1   
    58    31    32 1   
    59    31    34 1   
    60    32    33 1   
    61    32    68 1   
    62    32    69 1   
    63    33    36 1   
    64    33    70 1   
    65    33    71 1   
    66    34    35 1   
    67    34    44 2   
    68    35    36 ar  
    69    35    40 ar  
    70    36    37 ar  
    71    37    38 ar  
    72    37    72 1   
    73    38    39 ar  
    74    38    41 1   
    75    39    40 ar  
    76    39    73 1   
    77    40    74 1   
    78    41    42 1   
    79    41    43 1   
    80    42    75 1   
    81    42    76 1   
    82    42    77 1   
    83    43    78 1   
    84    43    79 1   
    85    43    80 1   
    86    45    81 1   
@<TRIPOS>SUBSTRUCTURE
     1 3OU         1 TEMP              0 ****  ****    0 ROOT
