@<TRIPOS>MOLECULE
3OV
   79    84     1     0     0
SMALL
abcg2


@<TRIPOS>ATOM
      1 C1          21.8320     4.8550     1.0530 c          1 3OV       0.525200
      2 C2          23.1630     5.0860     0.5120 cc         1 3OV       0.031800
      3 C3          24.1870     5.4800     1.3320 cd         1 3OV      -0.142000
      4 C4          23.9700     5.6680     2.7230 cd         1 3OV      -0.110200
      5 C5          22.7200     5.4410     3.2200 cc         1 3OV      -0.051400
      6 N6          21.6920     5.0520     2.4090 n          1 3OV      -0.254000
      7 C7          20.3610     4.8280     2.9790 c3         1 3OV       0.079300
      8 O8          20.8710     4.5020     0.3470 o          1 3OV      -0.592000
      9 N9          23.2070     4.8650    -0.8530 nu         1 3OV      -0.787900
     10 C10         24.2380     4.9710    -1.7500 ca         1 3OV       0.635900
     11 C11         23.9840     4.6550    -3.1030 ca         1 3OV      -0.229000
     12 C12         25.0100     4.7630    -4.0080 ca         1 3OV       0.011000
     13 C13         26.2850     5.1530    -3.5720 ca         1 3OV      -0.253600
     14 C14         26.4290     5.4530    -2.2260 ca         1 3OV       0.408900
     15 N15         25.4410     5.3750    -1.3310 nb         1 3OV      -0.751000
     16 C16         27.3770     5.3670    -4.5660 c          1 3OV       0.629700
     17 O17         27.1380     6.0060    -5.5980 o          1 3OV      -0.603100
     18 N18         28.6110     4.8830    -4.2860 n          1 3OV      -0.416800
     19 C19         29.7440     5.2110    -5.1480 c6         1 3OV       0.064000
     20 C20         30.9430     5.5700    -4.2820 c6         1 3OV       0.137600
     21 O21         31.2560     4.5310    -3.3570 os         1 3OV      -0.453000
     22 C22         30.1490     4.2470    -2.5040 c6         1 3OV       0.137600
     23 C23         28.9280     3.8390    -3.3130 c6         1 3OV       0.064000
     24 C24         25.1040     6.0530     3.5960 ca         1 3OV      -0.004800
     25 C25         26.3160     5.3730     3.4310 ca         1 3OV      -0.098000
     26 C26         27.4270     5.6770     4.2020 ca         1 3OV      -0.097000
     27 C27         27.3450     6.6780     5.1610 ca         1 3OV      -0.093000
     28 C28         26.1520     7.3630     5.3280 ca         1 3OV       0.052600
     29 C29         25.0180     7.0810     4.5570 ca         1 3OV      -0.065300
     30 C30         23.7650     7.8920     4.7440 c3         1 3OV       0.200900
     31 N31         26.1100     8.4240     6.3000 n          1 3OV      -0.234200
     32 C32         26.3450     9.7130     5.8680 cc         1 3OV      -0.020400
     33 C33         26.2930    10.7660     6.7020 cd         1 3OV      -0.282200
     34 C34         25.8430     8.0990     7.6340 c          1 3OV       0.591600
     35 C35         25.7730     9.2350     8.5430 ca         1 3OV      -0.262600
     36 C36         25.9890    10.5680     8.0900 ca         1 3OV       0.086200
     37 C37         25.9110    11.6520     8.9620 ca         1 3OV      -0.243000
     38 C38         25.6130    11.4790    10.3240 ca         1 3OV       0.402000
     39 C39         25.4070    10.1520    10.7860 ca         1 3OV      -0.270000
     40 C40         25.4900     9.1010     9.9140 ca         1 3OV       0.284000
     41 N41         25.5220    12.5320    11.1780 nh         1 3OV      -0.829400
     42 C42         25.7570    13.8830    10.6950 c3         1 3OV       0.218600
     43 C43         25.2410    12.3190    12.5890 c3         1 3OV       0.218600
     44 O44         25.6880     6.9170     7.9490 o          1 3OV      -0.519000
     45 O45         22.9560     7.2850     5.7650 oh         1 3OV      -0.657000
     46 F46         25.2810     7.8730    10.4400 f          1 3OV      -0.160000
     47 H1          25.1600     5.6630     0.9100 ha         1 3OV       0.225000
     48 H2          22.4770     5.5520     4.2650 h4         1 3OV       0.232000
     49 H3          20.4080     5.0150     4.0480 h1         1 3OV       0.059033
     50 H4          19.6430     5.5030     2.5160 h1         1 3OV       0.059033
     51 H5          20.0470     3.8030     2.7950 h1         1 3OV       0.059033
     52 H6          22.3090     4.5740    -1.2200 hn         1 3OV       0.527000
     53 H7          22.9950     4.3420    -3.4100 ha         1 3OV       0.131000
     54 H8          24.8420     4.5450    -5.0550 ha         1 3OV       0.135000
     55 H9          27.3830     5.7970    -1.8410 h4         1 3OV       0.020100
     56 H10         29.4720     6.0470    -5.7860 h1         1 3OV       0.064450
     57 H11         29.9830     4.3500    -5.7810 h1         1 3OV       0.064450
     58 H12         31.8260     5.7130    -4.9040 h1         1 3OV       0.054700
     59 H13         30.7370     6.4990    -3.7350 h1         1 3OV       0.054700
     60 H14         30.4570     3.4330    -1.8480 h1         1 3OV       0.054700
     61 H15         29.9140     5.1290    -1.8950 h1         1 3OV       0.054700
     62 H16         28.0830     3.6500    -2.6600 h1         1 3OV       0.064450
     63 H17         29.1500     2.9140    -3.8580 h1         1 3OV       0.064450
     64 H18         26.3790     4.5840     2.6930 ha         1 3OV       0.123000
     65 H19         28.3520     5.1340     4.0610 ha         1 3OV       0.121000
     66 H20         28.1960     6.9340     5.7780 ha         1 3OV       0.129000
     67 H21         24.0150     8.9120     5.0360 h1         1 3OV       0.033700
     68 H22         23.2130     7.9370     3.8030 h1         1 3OV       0.033700
     69 H23         26.5650     9.8080     4.8150 h4         1 3OV       0.201000
     70 H24         26.4800    11.7610     6.3260 ha         1 3OV       0.196000
     71 H25         26.0870    12.6370     8.5590 ha         1 3OV       0.118000
     72 H26         25.1830     9.9380    11.8190 ha         1 3OV       0.133000
     73 H27         25.6260    14.5800    11.5180 h1         1 3OV       0.041200
     74 H28         26.7720    13.9990    10.3020 h1         1 3OV       0.041200
     75 H29         25.0530    14.1500     9.9020 h1         1 3OV       0.041200
     76 H30         25.1910    13.2830    13.0860 h1         1 3OV       0.041200
     77 H31         24.2840    11.8100    12.7320 h1         1 3OV       0.041200
     78 H32         26.0220    11.7220    13.0700 h1         1 3OV       0.041200
     79 H33         22.1730     7.8380     5.8890 ho         1 3OV       0.440000
@<TRIPOS>BOND
     1     1     2 1   
     2     1     6 1   
     3     1     8 2   
     4     2     3 2   
     5     2     9 1   
     6     3     4 1   
     7     3    47 1   
     8     4     5 2   
     9     4    24 1   
    10     5     6 1   
    11     5    48 1   
    12     6     7 1   
    13     7    49 1   
    14     7    50 1   
    15     7    51 1   
    16     9    10 1   
    17     9    52 1   
    18    10    11 ar  
    19    10    15 ar  
    20    11    12 ar  
    21    11    53 1   
    22    12    13 ar  
    23    12    54 1   
    24    13    14 ar  
    25    13    16 1   
    26    14    15 ar  
    27    14    55 1   
    28    16    17 2   
    29    16    18 1   
    30    18    19 1   
    31    18    23 1   
    32    19    20 1   
    33    19    56 1   
    34    19    57 1   
    35    20    21 1   
    36    20    58 1   
    37    20    59 1   
    38    21    22 1   
    39    22    23 1   
    40    22    60 1   
    41    22    61 1   
    42    23    62 1   
    43    23    63 1   
    44    24    25 ar  
    45    24    29 ar  
    46    25    26 ar  
    47    25    64 1   
    48    26    27 ar  
    49    26    65 1   
    50    27    28 ar  
    51    27    66 1   
    52    28    29 ar  
    53    28    31 1   
    54    29    30 1   
    55    30    45 1   
    56    30    67 1   
    57    30    68 1   
    58    31    32 1   
    59    31    34 1   
    60    32    33 2   
    61    32    69 1   
    62    33    36 1   
    63    33    70 1   
    64    34    35 1   
    65    34    44 2   
    66    35    36 ar  
    67    35    40 ar  
    68    36    37 ar  
    69    37    38 ar  
    70    37    71 1   
    71    38    39 ar  
    72    38    41 1   
    73    39    40 ar  
    74    39    72 1   
    75    40    46 1   
    76    41    42 1   
    77    41    43 1   
    78    42    73 1   
    79    42    74 1   
    80    42    75 1   
    81    43    76 1   
    82    43    77 1   
    83    43    78 1   
    84    45    79 1   
@<TRIPOS>SUBSTRUCTURE
     1 3OV         1 TEMP              0 ****  ****    0 ROOT
