@<TRIPOS>MOLECULE
3OV
   79    84     1     0     0
SMALL
No Charge or Current Charge


@<TRIPOS>ATOM
      1 C1          21.6520     4.8450     0.9030 c          1 3OV       0.525200
      2 C2          23.0890     4.5590     0.5760 cc         1 3OV       0.031800
      3 C3          24.0920     4.7930     1.4970 cd         1 3OV      -0.142000
      4 C4          23.7990     5.3570     2.7960 cd         1 3OV      -0.110200
      5 C5          22.4760     5.6690     3.0600 cc         1 3OV      -0.051400
      6 N6          21.4290     5.4210     2.1690 n          1 3OV      -0.254000
      7 C7          20.0330     5.7480     2.5440 c3         1 3OV       0.079300
      8 O8          20.7300     4.5980     0.1260 o          1 3OV      -0.592000
      9 N9          23.3370     3.9750    -0.6740 nu         1 3OV      -0.787900
     10 C10         24.2910     4.1850    -1.6540 ca         1 3OV       0.635900
     11 C11         24.1760     3.5580    -2.9000 ca         1 3OV      -0.229000
     12 C12         25.1510     3.8020    -3.8770 ca         1 3OV       0.011000
     13 C13         26.2150     4.6620    -3.5530 ca         1 3OV      -0.253600
     14 C14         26.2210     5.2680    -2.2870 ca         1 3OV       0.408900
     15 N15         25.2810     5.0320    -1.3470 nb         1 3OV      -0.751000
     16 C16         27.2670     4.9900    -4.5670 c          1 3OV       0.629700
     17 O17         26.9870     5.0130    -5.7590 o          1 3OV      -0.603100
     18 N18         28.5480     5.3760    -4.1140 n          1 3OV      -0.416800
     19 C19         29.5020     5.9870    -5.0940 c6         1 3OV       0.064000
     20 C20         30.7690     6.5970    -4.4390 c6         1 3OV       0.137600
     21 O21         31.3870     5.6400    -3.5570 os         1 3OV      -0.453000
     22 C22         30.5130     5.2340    -2.4860 c6         1 3OV       0.137600
     23 C23         29.2390     4.5600    -3.0590 c6         1 3OV       0.064000
     24 C24         24.9000     5.6620     3.7470 ca         1 3OV      -0.004800
     25 C25         25.9470     4.7170     3.8360 ca         1 3OV      -0.098000
     26 C26         26.9970     4.8740     4.7490 ca         1 3OV      -0.097000
     27 C27         27.0370     6.0020     5.5730 ca         1 3OV      -0.093000
     28 C28         26.0620     7.0050     5.4510 ca         1 3OV       0.052600
     29 C29         24.9570     6.8300     4.5720 ca         1 3OV      -0.065300
     30 C30         23.9460     7.9800     4.4410 c3         1 3OV       0.200900
     31 N31         26.1070     8.0940     6.3830 n          1 3OV      -0.234200
     32 C32         26.7180     9.2780     5.9650 cc         1 3OV      -0.020400
     33 C33         26.7710    10.3720     6.7930 cd         1 3OV      -0.282200
     34 C34         25.5680     7.9500     7.6880 c          1 3OV       0.591600
     35 C35         25.6110     9.1580     8.5970 ca         1 3OV      -0.262600
     36 C36         26.2080    10.3390     8.1340 ca         1 3OV       0.086200
     37 C37         26.2690    11.4770     8.9500 ca         1 3OV      -0.243000
     38 C38         25.7350    11.4590    10.2480 ca         1 3OV       0.402000
     39 C39         25.1380    10.2820    10.7140 ca         1 3OV      -0.270000
     40 C40         25.0740     9.1440     9.9010 ca         1 3OV       0.284000
     41 N41         25.7960    12.6090    11.0720 nh         1 3OV      -0.829400
     42 C42         25.8000    13.9740    10.4940 c3         1 3OV       0.218600
     43 C43         25.8690    12.5010    12.5480 c3         1 3OV       0.218600
     44 O44         25.1000     6.8790     8.0550 o          1 3OV      -0.519000
     45 O45         22.9440     7.9180     5.4660 oh         1 3OV      -0.657000
     46 F46         24.4790     8.0430    10.4100 f          1 3OV      -0.160000
     47 H1          25.1160     4.5610     1.2260 ha         1 3OV       0.225000
     48 H2          22.1200     6.0750     4.0000 h4         1 3OV       0.232000
     49 H3          19.9940     6.2410     3.5230 h1         1 3OV       0.059033
     50 H4          19.5970     6.4220     1.7950 h1         1 3OV       0.059033
     51 H5          19.4380     4.8270     2.5880 h1         1 3OV       0.059033
     52 H6          22.4970     3.5590    -1.0770 hn         1 3OV       0.527000
     53 H7          23.3460     2.8900    -3.1080 ha         1 3OV       0.131000
     54 H8          25.0850     3.3280    -4.8560 ha         1 3OV       0.135000
     55 H9          26.9950     5.9830    -2.0080 h4         1 3OV       0.020100
     56 H10         28.9870     6.7760    -5.6610 h1         1 3OV       0.064450
     57 H11         29.8120     5.2180    -5.8160 h1         1 3OV       0.064450
     58 H12         31.4880     6.8910    -5.2160 h1         1 3OV       0.054700
     59 H13         30.4990     7.4960    -3.8660 h1         1 3OV       0.054700
     60 H14         31.0470     4.5300    -1.8320 h1         1 3OV       0.054700
     61 H15         30.2360     6.1140    -1.8880 h1         1 3OV       0.054700
     62 H16         28.5650     4.3290    -2.2260 h1         1 3OV       0.064450
     63 H17         29.5270     3.5960    -3.5020 h1         1 3OV       0.064450
     64 H18         25.9220     3.8130     3.2320 ha         1 3OV       0.123000
     65 H19         27.7690     4.1130     4.8290 ha         1 3OV       0.121000
     66 H20         27.8410     6.1120     6.2970 ha         1 3OV       0.129000
     67 H21         24.4800     8.9370     4.5030 h1         1 3OV       0.033700
     68 H22         23.4860     7.9700     3.4460 h1         1 3OV       0.033700
     69 H23         27.1150     9.2230     4.9550 h4         1 3OV       0.201000
     70 H24         27.2480    11.2790     6.4320 ha         1 3OV       0.196000
     71 H25         26.7470    12.3740     8.5720 ha         1 3OV       0.118000
     72 H26         24.7040    10.2400    11.7060 ha         1 3OV       0.133000
     73 H27         25.3990    14.7030    11.2120 h1         1 3OV       0.041200
     74 H28         26.8210    14.2770    10.2250 h1         1 3OV       0.041200
     75 H29         25.1700    14.0160     9.5950 h1         1 3OV       0.041200
     76 H30         26.3590    13.3830    12.9810 h1         1 3OV       0.041200
     77 H31         24.8630    12.4150    12.9790 h1         1 3OV       0.041200
     78 H32         26.4550    11.6200    12.8430 h1         1 3OV       0.041200
     79 H33         22.4140     8.7420     5.3960 ho         1 3OV       0.440000
@<TRIPOS>BOND
     1     1     2 1   
     2     1     6 1   
     3     1     8 2   
     4     2     3 2   
     5     2     9 1   
     6     3     4 1   
     7     3    47 1   
     8     4     5 2   
     9     4    24 1   
    10     5     6 1   
    11     5    48 1   
    12     6     7 1   
    13     7    49 1   
    14     7    50 1   
    15     7    51 1   
    16     9    10 1   
    17     9    52 1   
    18    10    11 ar  
    19    10    15 ar  
    20    11    12 ar  
    21    11    53 1   
    22    12    13 ar  
    23    12    54 1   
    24    13    14 ar  
    25    13    16 1   
    26    14    15 ar  
    27    14    55 1   
    28    16    17 2   
    29    16    18 1   
    30    18    19 1   
    31    18    23 1   
    32    19    20 1   
    33    19    56 1   
    34    19    57 1   
    35    20    21 1   
    36    20    58 1   
    37    20    59 1   
    38    21    22 1   
    39    22    23 1   
    40    22    60 1   
    41    22    61 1   
    42    23    62 1   
    43    23    63 1   
    44    24    25 ar  
    45    24    29 ar  
    46    25    26 ar  
    47    25    64 1   
    48    26    27 ar  
    49    26    65 1   
    50    27    28 ar  
    51    27    66 1   
    52    28    29 ar  
    53    28    31 1   
    54    29    30 1   
    55    30    45 1   
    56    30    67 1   
    57    30    68 1   
    58    31    32 1   
    59    31    34 1   
    60    32    33 2   
    61    32    69 1   
    62    33    36 1   
    63    33    70 1   
    64    34    35 1   
    65    34    44 2   
    66    35    36 ar  
    67    35    40 ar  
    68    36    37 ar  
    69    37    38 ar  
    70    37    71 1   
    71    38    39 ar  
    72    38    41 1   
    73    39    40 ar  
    74    39    72 1   
    75    40    46 1   
    76    41    42 1   
    77    41    43 1   
    78    42    73 1   
    79    42    74 1   
    80    42    75 1   
    81    43    76 1   
    82    43    77 1   
    83    43    78 1   
    84    45    79 1   
@<TRIPOS>SUBSTRUCTURE
     1 3OV         1 TEMP              0 ****  ****    0 ROOT
