@<TRIPOS>MOLECULE
3OW
   97   100     1     0     0
SMALL
abcg2


@<TRIPOS>ATOM
      1 N1          20.8850    -0.6320   -16.3860 ns         1 3OW      -0.482900
      2 C2          22.1530    -1.2840   -16.6770 c3         1 3OW       0.123700
      3 C3          23.0860    -0.4240   -17.5380 c3         1 3OW       0.157300
      4 C4          23.4440     0.8980   -16.8660 c3         1 3OW      -0.097400
      5 C5          24.5030     1.7080   -17.6250 c3         1 3OW      -0.133700
      6 C6          25.7760     0.8790   -17.7390 c          1 3OW       0.585100
      7 C7          21.8960    -2.6290   -17.3530 c3         1 3OW       0.140600
      8 O8          22.4270    -0.2100   -18.7950 oh         1 3OW      -0.678000
      9 C9          24.8190     3.0680   -16.9590 c3         1 3OW      -0.051700
     10 C10         23.5790     3.9620   -16.8850 c3         1 3OW      -0.092100
     11 C11         25.9420     3.7960   -17.7020 c3         1 3OW      -0.092100
     12 O12         26.3810     0.4850   -16.7380 o          1 3OW      -0.604100
     13 O13         20.9920    -3.3920   -16.5710 os         1 3OW      -0.466000
     14 C14         27.4010    -0.1360   -19.2910 c3         1 3OW       0.105000
     15 C15         28.6510     0.7520   -19.3620 c3         1 3OW      -0.090700
     16 C16         29.8870    -0.1220   -19.5750 c3         1 3OW      -0.087100
     17 C17         28.5240     1.8110   -20.4560 c3         1 3OW      -0.087100
     18 N18         26.1800     0.5940   -18.9900 ns         1 3OW      -0.510900
     19 C19         19.1090     0.1420   -14.9550 ca         1 3OW      -0.141600
     20 C20         18.6870     1.2500   -14.2270 ca         1 3OW      -0.032000
     21 C21         17.3350     1.4120   -13.9360 ca         1 3OW       0.209000
     22 C22         16.4090     0.4510   -14.3250 ca         1 3OW      -0.030000
     23 C23         16.8270    -0.6510   -15.0620 ca         1 3OW      -0.160600
     24 C24         18.1730    -0.7940   -15.3850 ca         1 3OW      -0.064000
     25 C25         20.5710    -0.1080   -15.1850 c          1 3OW       0.615700
     26 C26         15.8760    -1.7540   -15.4120 c          1 3OW       0.612700
     27 N27         16.8640     2.5570   -13.2090 nh         1 3OW      -0.788300
     28 C28         17.3520     2.7050   -11.8270 c3         1 3OW       0.200100
     29 S29         16.6080     3.9400   -14.0920 s6         1 3OW       1.226100
     30 C30         15.2460     3.5100   -15.1410 c3         1 3OW      -0.350100
     31 O31         15.0650    -2.1910   -14.5990 o          1 3OW      -0.577100
     32 O32         21.3960     0.1190   -14.2990 o          1 3OW      -0.595100
     33 O33         17.7390     4.2430   -14.9440 o          1 3OW      -0.546500
     34 O34         16.1860     4.9530   -13.1500 o          1 3OW      -0.546500
     35 N35         16.0280    -2.2470   -16.6620 ns         1 3OW      -0.493900
     36 C36         15.6750    -3.6200   -17.0160 c3         1 3OW       0.203300
     37 C37         16.8380    -4.5270   -16.6370 ca         1 3OW      -0.120300
     38 C38         19.2210    -4.9940   -16.7070 ca         1 3OW      -0.094300
     39 C39         19.0330    -6.0460   -15.8110 ca         1 3OW      -0.080000
     40 C40         17.7580    -6.3450   -15.3420 ca         1 3OW      -0.110000
     41 C41         16.6650    -5.5820   -15.7450 ca         1 3OW      -0.081000
     42 C42         18.1150    -4.2590   -17.1240 ca         1 3OW      -0.088000
     43 C43         20.5860    -4.6090   -17.2070 c3         1 3OW       0.206900
     44 C44         15.2600    -3.7200   -18.4750 ca         1 3OW      -0.095300
     45 C45         15.2930    -4.9560   -19.1230 ca         1 3OW      -0.098000
     46 C46         14.8730    -5.0750   -20.4430 ca         1 3OW      -0.110500
     47 C47         14.4190    -3.9580   -21.1370 ca         1 3OW      -0.105000
     48 C48         14.3840    -2.7230   -20.4990 ca         1 3OW      -0.110500
     49 C49         14.7990    -2.6060   -19.1750 ca         1 3OW      -0.098000
     50 HN1         20.1470    -0.7380   -17.0640 hn         1 3OW       0.318500
     51 H2          22.6460    -1.4480   -15.7190 h1         1 3OW       0.097700
     52 H3          23.9920    -1.0180   -17.7030 h1         1 3OW       0.044700
     53 H4          22.5300     1.4850   -16.7750 hc         1 3OW       0.078700
     54 H4A         23.8060     0.6990   -15.8560 hc         1 3OW       0.078700
     55 H5          24.1320     1.9270   -18.6320 hc         1 3OW       0.040700
     56 H7          21.4710    -2.4670   -18.3490 h1         1 3OW       0.038700
     57 H7A         22.8530    -3.1510   -17.4720 h1         1 3OW       0.038700
     58 HO8         23.0660     0.1320   -19.4310 ho         1 3OW       0.441000
     59 H9          25.1580     2.8580   -15.9400 hc         1 3OW       0.070700
     60 H10         23.8460     4.9400   -16.4800 hc         1 3OW       0.037033
     61 H10A        23.1560     4.1160   -17.8830 hc         1 3OW       0.037033
     62 H10B        22.8010     3.5400   -16.2500 hc         1 3OW       0.037033
     63 H11         26.1580     4.7540   -17.2250 hc         1 3OW       0.037033
     64 H11A        26.8660     3.2170   -17.7230 hc         1 3OW       0.037033
     65 H11B        25.6500     3.9960   -18.7380 hc         1 3OW       0.037033
     66 H14         27.2570    -0.6450   -20.2460 h1         1 3OW       0.054700
     67 H14A        27.5350    -0.8950   -18.5200 h1         1 3OW       0.054700
     68 H15         28.7450     1.2580   -18.3960 hc         1 3OW       0.065700
     69 H16         30.7940     0.4850   -19.5980 hc         1 3OW       0.034200
     70 H16A        29.9930    -0.8600   -18.7760 hc         1 3OW       0.034200
     71 H16B        29.8200    -0.6600   -20.5250 hc         1 3OW       0.034200
     72 H17         29.4130     2.4450   -20.4860 hc         1 3OW       0.034200
     73 H17A        28.4140     1.3380   -21.4360 hc         1 3OW       0.034200
     74 H17B        27.6590     2.4550   -20.2900 hc         1 3OW       0.034200
     75 HN18        25.6650     0.9980   -19.7540 hn         1 3OW       0.306500
     76 H20         19.4060     1.9840   -13.8930 ha         1 3OW       0.148000
     77 H22         15.3680     0.5670   -14.0530 ha         1 3OW       0.143000
     78 H24         18.5070    -1.6740   -15.9160 ha         1 3OW       0.132000
     79 H28         16.8380     3.5370   -11.3550 h1         1 3OW       0.058700
     80 H28A        17.1070     1.7870   -11.2960 h1         1 3OW       0.058700
     81 H28B        18.4300     2.8730   -11.7840 h1         1 3OW       0.058700
     82 H30         15.0300     4.4040   -15.7250 h1         1 3OW       0.104700
     83 H30A        15.5410     2.6950   -15.8000 h1         1 3OW       0.104700
     84 H30B        14.3980     3.2320   -14.5210 h1         1 3OW       0.104700
     85 HN35        16.7280    -1.8080   -17.2410 hn         1 3OW       0.306500
     86 H36         14.8200    -3.8860   -16.3940 h1         1 3OW       0.097700
     87 H39         19.8850    -6.6260   -15.4790 ha         1 3OW       0.118000
     88 H40         17.6150    -7.1630   -14.6480 ha         1 3OW       0.120000
     89 H41         15.6770    -5.8000   -15.3580 ha         1 3OW       0.123000
     90 H42         18.2650    -3.4490   -17.8290 ha         1 3OW       0.107000
     91 H43         20.5470    -4.4500   -18.2900 h1         1 3OW       0.038200
     92 H43A        21.3180    -5.3980   -17.0040 h1         1 3OW       0.038200
     93 H45         15.6530    -5.8300   -18.5970 ha         1 3OW       0.119500
     94 H46         14.9040    -6.0420   -20.9300 ha         1 3OW       0.115000
     95 H47         14.0990    -4.0480   -22.1680 ha         1 3OW       0.115000
     96 H48         14.0350    -1.8460   -21.0300 ha         1 3OW       0.115000
     97 H49         14.7670    -1.6400   -18.6860 ha         1 3OW       0.119500
@<TRIPOS>BOND
     1     1     2 1   
     2     1    25 1   
     3     1    50 1   
     4     2     3 1   
     5     2     7 1   
     6     2    51 1   
     7     3     4 1   
     8     3     8 1   
     9     3    52 1   
    10     4     5 1   
    11     4    53 1   
    12     4    54 1   
    13     5     6 1   
    14     5     9 1   
    15     5    55 1   
    16     6    12 2   
    17     6    18 1   
    18     7    13 1   
    19     7    56 1   
    20     7    57 1   
    21     8    58 1   
    22     9    10 1   
    23     9    11 1   
    24     9    59 1   
    25    10    60 1   
    26    10    61 1   
    27    10    62 1   
    28    11    63 1   
    29    11    64 1   
    30    11    65 1   
    31    13    43 1   
    32    14    15 1   
    33    14    18 1   
    34    14    66 1   
    35    14    67 1   
    36    15    16 1   
    37    15    17 1   
    38    15    68 1   
    39    16    69 1   
    40    16    70 1   
    41    16    71 1   
    42    17    72 1   
    43    17    73 1   
    44    17    74 1   
    45    18    75 1   
    46    19    20 ar  
    47    19    24 ar  
    48    19    25 1   
    49    20    21 ar  
    50    20    76 1   
    51    21    22 ar  
    52    21    27 1   
    53    22    23 ar  
    54    22    77 1   
    55    23    24 ar  
    56    23    26 1   
    57    24    78 1   
    58    25    32 2   
    59    26    31 2   
    60    26    35 1   
    61    27    28 1   
    62    27    29 1   
    63    28    79 1   
    64    28    80 1   
    65    28    81 1   
    66    29    30 1   
    67    29    33 2   
    68    29    34 2   
    69    30    82 1   
    70    30    83 1   
    71    30    84 1   
    72    35    36 1   
    73    35    85 1   
    74    36    37 1   
    75    36    44 1   
    76    36    86 1   
    77    37    41 ar  
    78    37    42 ar  
    79    38    39 ar  
    80    38    42 ar  
    81    38    43 1   
    82    39    40 ar  
    83    39    87 1   
    84    40    41 ar  
    85    40    88 1   
    86    41    89 1   
    87    42    90 1   
    88    43    91 1   
    89    43    92 1   
    90    44    45 ar  
    91    44    49 ar  
    92    45    46 ar  
    93    45    93 1   
    94    46    47 ar  
    95    46    94 1   
    96    47    48 ar  
    97    47    95 1   
    98    48    49 ar  
    99    48    96 1   
   100    49    97 1   
@<TRIPOS>SUBSTRUCTURE
     1 3OW         1 TEMP              0 ****  ****    0 ROOT
