@<TRIPOS>MOLECULE
3OW
   97   100     1     0     0
SMALL
No Charge or Current Charge


@<TRIPOS>ATOM
      1 N1          20.8740    -0.6760   -16.3180 ns         1 3OW      -0.482900
      2 C2          22.2040    -1.3000   -16.4820 c3         1 3OW       0.123700
      3 C3          23.1880    -0.4530   -17.3540 c3         1 3OW       0.157300
      4 C4          23.6010     0.9010   -16.7140 c3         1 3OW      -0.097400
      5 C5          24.6800     1.7060   -17.5070 c3         1 3OW      -0.133700
      6 C6          25.8940     0.8070   -17.8340 c          1 3OW       0.585100
      7 C7          22.0600    -2.7460   -17.0440 c3         1 3OW       0.140600
      8 O8          22.6140    -0.1960   -18.6460 oh         1 3OW      -0.678000
      9 C9          25.1300     3.0250   -16.7920 c3         1 3OW      -0.051700
     10 C10         23.9510     3.9900   -16.5030 c3         1 3OW      -0.092100
     11 C11         26.2350     3.7700   -17.5850 c3         1 3OW      -0.092100
     12 O12         26.6080     0.3180   -16.9690 o          1 3OW      -0.604100
     13 O13         20.9410    -3.3950   -16.4060 os         1 3OW      -0.466000
     14 C14         27.2340    -0.1740   -19.7290 c3         1 3OW       0.105000
     15 C15         28.5620     0.6260   -19.7320 c3         1 3OW      -0.090700
     16 C16         29.7380    -0.2560   -20.2070 c3         1 3OW      -0.087100
     17 C17         28.4670     1.9250   -20.5680 c3         1 3OW      -0.087100
     18 N18         26.1110     0.5870   -19.1760 ns         1 3OW      -0.510900
     19 C19         19.0160     0.3200   -15.0590 ca         1 3OW      -0.141600
     20 C20         18.5490     1.3810   -14.2540 ca         1 3OW      -0.032000
     21 C21         17.1770     1.5380   -13.9890 ca         1 3OW       0.209000
     22 C22         16.2610     0.6070   -14.5050 ca         1 3OW      -0.030000
     23 C23         16.6940    -0.4620   -15.3150 ca         1 3OW      -0.160600
     24 C24         18.0770    -0.5930   -15.5920 ca         1 3OW      -0.064000
     25 C25         20.5020     0.1340   -15.2640 c          1 3OW       0.615700
     26 C26         15.7020    -1.4970   -15.7900 c          1 3OW       0.612700
     27 N27         16.7210     2.5930   -13.1800 nh         1 3OW      -0.788300
     28 C28         16.9710     2.5670   -11.7270 c3         1 3OW       0.200100
     29 S29         16.4900     4.1470   -13.8990 s6         1 3OW       1.226100
     30 C30         15.3030     3.8580   -15.1960 c3         1 3OW      -0.350100
     31 O31         14.6360    -1.6950   -15.2250 o          1 3OW      -0.577100
     32 O32         21.3260     0.6260   -14.5080 o          1 3OW      -0.595100
     33 O33         17.7710     4.5240   -14.5050 o          1 3OW      -0.546500
     34 O34         15.8740     5.0030   -12.8810 o          1 3OW      -0.546500
     35 N35         16.1190    -2.2610   -16.8520 ns         1 3OW      -0.493900
     36 C36         15.6970    -3.6360   -17.1080 c3         1 3OW       0.203300
     37 C37         16.8240    -4.5470   -16.6110 ca         1 3OW      -0.120300
     38 C38         19.2190    -5.0640   -16.4830 ca         1 3OW      -0.094300
     39 C39         18.9410    -6.1090   -15.5830 ca         1 3OW      -0.080000
     40 C40         17.6130    -6.3790   -15.2060 ca         1 3OW      -0.110000
     41 C41         16.5590    -5.5960   -15.7100 ca         1 3OW      -0.081000
     42 C42         18.1570    -4.3040   -17.0070 ca         1 3OW      -0.088000
     43 C43         20.6490    -4.7220   -16.8850 c3         1 3OW       0.206900
     44 C44         15.3280    -3.8360   -18.5850 ca         1 3OW      -0.095300
     45 C45         15.7860    -4.9500   -19.3270 ca         1 3OW      -0.098000
     46 C46         15.4200    -5.1090   -20.6750 ca         1 3OW      -0.110500
     47 C47         14.5880    -4.1660   -21.2970 ca         1 3OW      -0.105000
     48 C48         14.1170    -3.0630   -20.5680 ca         1 3OW      -0.110500
     49 C49         14.4820    -2.9020   -19.2200 ca         1 3OW      -0.098000
     50 HN1         20.1220    -1.0520   -16.8780 hn         1 3OW       0.318500
     51 H2          22.6510    -1.4010   -15.4840 h1         1 3OW       0.097700
     52 H3          24.0970    -1.0570   -17.4740 h1         1 3OW       0.044700
     53 H4          22.7030     1.5180   -16.6050 hc         1 3OW       0.078700
     54 H4A         23.9770     0.7080   -15.7020 hc         1 3OW       0.078700
     55 H5          24.2240     2.0040   -18.4600 hc         1 3OW       0.040700
     56 H7          21.8910    -2.6980   -18.1280 h1         1 3OW       0.038700
     57 H7A         22.9910    -3.3020   -16.8710 h1         1 3OW       0.038700
     58 HO8         21.7880     0.3110   -18.4930 ho         1 3OW       0.441000
     59 H9          25.5650     2.7490   -15.8220 hc         1 3OW       0.070700
     60 H10         24.3170     4.9310   -16.0740 hc         1 3OW       0.037033
     61 H10A        23.4040     4.2260   -17.4240 hc         1 3OW       0.037033
     62 H10B        23.2490     3.5590   -15.7810 hc         1 3OW       0.037033
     63 H11         26.5170     4.7000   -17.0780 hc         1 3OW       0.037033
     64 H11A        27.1430     3.1620   -17.6760 hc         1 3OW       0.037033
     65 H11B        25.8880     4.0230   -18.5940 hc         1 3OW       0.037033
     66 H14         26.9820    -0.4700   -20.7560 h1         1 3OW       0.054700
     67 H14A        27.3590    -1.0920   -19.1390 h1         1 3OW       0.054700
     68 H15         28.7760     0.9170   -18.6960 hc         1 3OW       0.065700
     69 H16         30.6840     0.2970   -20.1540 hc         1 3OW       0.034200
     70 H16A        29.8330    -1.1480   -19.5750 hc         1 3OW       0.034200
     71 H16B        29.5880    -0.5830   -21.2430 hc         1 3OW       0.034200
     72 H17         29.4170     2.4730   -20.5400 hc         1 3OW       0.034200
     73 H17A        28.2330     1.6980   -21.6160 hc         1 3OW       0.034200
     74 H17B        27.6880     2.5910   -20.1790 hc         1 3OW       0.034200
     75 HN18        25.4510     1.0100   -19.8180 hn         1 3OW       0.306500
     76 H20         19.2530     2.0900   -13.8250 ha         1 3OW       0.148000
     77 H22         15.2070     0.7180   -14.2630 ha         1 3OW       0.143000
     78 H24         18.4310    -1.4530   -16.1530 ha         1 3OW       0.132000
     79 H28         16.0780     2.8920   -11.1760 h1         1 3OW       0.058700
     80 H28A        17.2120     1.5480   -11.3960 h1         1 3OW       0.058700
     81 H28B        17.8110     3.2220   -11.4610 h1         1 3OW       0.058700
     82 H30         15.0900     4.8240   -15.6650 h1         1 3OW       0.104700
     83 H30A        15.7530     3.1610   -15.9090 h1         1 3OW       0.104700
     84 H30B        14.4080     3.4340   -14.7300 h1         1 3OW       0.104700
     85 HN35        16.9620    -1.9540   -17.3130 hn         1 3OW       0.306500
     86 H36         14.7950    -3.8450   -16.5160 h1         1 3OW       0.097700
     87 H39         19.7510    -6.7080   -15.1710 ha         1 3OW       0.118000
     88 H40         17.4020    -7.1860   -14.5080 ha         1 3OW       0.120000
     89 H41         15.5390    -5.8000   -15.3900 ha         1 3OW       0.123000
     90 H42         18.3790    -3.5050   -17.7090 ha         1 3OW       0.107000
     91 H43         20.7240    -4.7680   -17.9800 h1         1 3OW       0.038200
     92 H43A        21.3540    -5.4510   -16.4640 h1         1 3OW       0.038200
     93 H45         16.4240    -5.7020   -18.8700 ha         1 3OW       0.119500
     94 H46         15.7810    -5.9680   -21.2370 ha         1 3OW       0.115000
     95 H47         14.3050    -4.2910   -22.3400 ha         1 3OW       0.115000
     96 H48         13.4670    -2.3330   -21.0460 ha         1 3OW       0.115000
     97 H49         14.1020    -2.0450   -18.6670 ha         1 3OW       0.119500
@<TRIPOS>BOND
     1     1     2 1   
     2     1    25 1   
     3     1    50 1   
     4     2     3 1   
     5     2     7 1   
     6     2    51 1   
     7     3     4 1   
     8     3     8 1   
     9     3    52 1   
    10     4     5 1   
    11     4    53 1   
    12     4    54 1   
    13     5     6 1   
    14     5     9 1   
    15     5    55 1   
    16     6    12 2   
    17     6    18 1   
    18     7    13 1   
    19     7    56 1   
    20     7    57 1   
    21     8    58 1   
    22     9    10 1   
    23     9    11 1   
    24     9    59 1   
    25    10    60 1   
    26    10    61 1   
    27    10    62 1   
    28    11    63 1   
    29    11    64 1   
    30    11    65 1   
    31    13    43 1   
    32    14    15 1   
    33    14    18 1   
    34    14    66 1   
    35    14    67 1   
    36    15    16 1   
    37    15    17 1   
    38    15    68 1   
    39    16    69 1   
    40    16    70 1   
    41    16    71 1   
    42    17    72 1   
    43    17    73 1   
    44    17    74 1   
    45    18    75 1   
    46    19    20 ar  
    47    19    24 ar  
    48    19    25 1   
    49    20    21 ar  
    50    20    76 1   
    51    21    22 ar  
    52    21    27 1   
    53    22    23 ar  
    54    22    77 1   
    55    23    24 ar  
    56    23    26 1   
    57    24    78 1   
    58    25    32 2   
    59    26    31 2   
    60    26    35 1   
    61    27    28 1   
    62    27    29 1   
    63    28    79 1   
    64    28    80 1   
    65    28    81 1   
    66    29    30 1   
    67    29    33 2   
    68    29    34 2   
    69    30    82 1   
    70    30    83 1   
    71    30    84 1   
    72    35    36 1   
    73    35    85 1   
    74    36    37 1   
    75    36    44 1   
    76    36    86 1   
    77    37    41 ar  
    78    37    42 ar  
    79    38    39 ar  
    80    38    42 ar  
    81    38    43 1   
    82    39    40 ar  
    83    39    87 1   
    84    40    41 ar  
    85    40    88 1   
    86    41    89 1   
    87    42    90 1   
    88    43    91 1   
    89    43    92 1   
    90    44    45 ar  
    91    44    49 ar  
    92    45    46 ar  
    93    45    93 1   
    94    46    47 ar  
    95    46    94 1   
    96    47    48 ar  
    97    47    95 1   
    98    48    49 ar  
    99    48    96 1   
   100    49    97 1   
@<TRIPOS>SUBSTRUCTURE
     1 3OW         1 TEMP              0 ****  ****    0 ROOT
