@<TRIPOS>MOLECULE
3OX
   97   100     1     0     0
SMALL
abcg2


@<TRIPOS>ATOM
      1 N1          -0.5680     0.5700    -3.4780 ns         1 3OX      -0.518900
      2 C2          -0.7290     1.6300    -2.4940 c3         1 3OX       0.084700
      3 C3          -2.2020     1.8480    -2.1100 c3         1 3OX       0.156300
      4 C4          -2.7740     0.5920    -1.4570 c3         1 3OX      -0.106400
      5 C5          -4.0220     0.8200    -0.5950 c3         1 3OX      -0.123700
      6 C6          -4.1870    -0.4090     0.2860 c          1 3OX       0.603100
      7 C7          -0.0400     2.8730    -3.0520 c3         1 3OX       0.150600
      8 O8          -2.9580     2.3190    -3.2030 oh         1 3OX      -0.646000
      9 C9          -5.3180     1.1720    -1.3540 c3         1 3OX      -0.047700
     10 C10         -5.6990     0.2060    -2.4700 c3         1 3OX      -0.089100
     11 C11         -6.4810     1.3390    -0.3770 c3         1 3OX      -0.089100
     12 O12         -4.3350    -1.5290    -0.1890 o          1 3OX      -0.616100
     13 O13         -0.2100     3.9430    -2.1540 os         1 3OX      -0.453000
     14 C14         -4.1060    -1.1850     2.6360 c3         1 3OX       0.098000
     15 C15         -2.8420    -1.1260     3.4960 c3         1 3OX      -0.084700
     16 C16         -2.9330    -2.1650     4.6080 c3         1 3OX      -0.088100
     17 C17         -1.5820    -1.3340     2.6650 c3         1 3OX      -0.088100
     18 N18         -4.1210    -0.1720     1.6070 ns         1 3OX      -0.504900
     19 C19          0.1320    -1.2440    -1.9810 ca         1 3OX      -0.134600
     20 C20         -0.4190    -2.4290    -1.5040 ca         1 3OX      -0.070000
     21 C21         -0.0280    -2.9460    -0.2750 ca         1 3OX       0.283000
     22 C22          0.9390    -2.2780     0.4760 ca         1 3OX      -0.051000
     23 C23          1.5030    -1.1140    -0.0110 ca         1 3OX      -0.141600
     24 C24          1.1170    -0.6030    -1.2470 ca         1 3OX      -0.084000
     25 C25         -0.3180    -0.7490    -3.3210 c          1 3OX       0.619700
     26 C26          2.4870    -0.3440     0.8150 c          1 3OX       0.618700
     27 N27         -0.6670    -4.0910     0.2410 nh         1 3OX      -0.789300
     28 C28         -2.0630    -4.3480    -0.1040 c3         1 3OX       0.194100
     29 S29          0.2370    -5.4150     0.7200 s6         1 3OX       1.208100
     30 C30         -0.0400    -5.4780     2.4710 c3         1 3OX      -0.354100
     31 O31          3.4740    -0.8440     1.3230 o          1 3OX      -0.565100
     32 O32         -0.4470    -1.5370    -4.2450 o          1 3OX      -0.581100
     33 O33         -0.3520    -6.6050     0.1260 o          1 3OX      -0.523500
     34 O34          1.6370    -5.1180     0.4700 o          1 3OX      -0.523500
     35 N35          2.1340     0.9520     0.9230 ns         1 3OX      -0.511900
     36 C36          2.9620     2.0450     1.3840 c3         1 3OX       0.209300
     37 C37          3.1290     3.0090     0.2240 ca         1 3OX      -0.108300
     38 C38          2.0950     4.3430    -1.5140 ca         1 3OX      -0.133300
     39 C39          3.3550     4.6050    -2.0450 ca         1 3OX      -0.095000
     40 C40          4.4910     4.0930    -1.4360 ca         1 3OX      -0.108000
     41 C41          4.3800     3.2840    -0.3110 ca         1 3OX      -0.087000
     42 C42          1.9990     3.5630    -0.3690 ca         1 3OX      -0.089000
     43 C43          0.8410     4.8810    -2.1630 c3         1 3OX       0.205900
     44 C44          2.3870     2.7070     2.6250 ca         1 3OX      -0.097300
     45 C45          1.4360     2.0710     3.4150 ca         1 3OX      -0.097500
     46 C46          0.9480     2.6830     4.5640 ca         1 3OX      -0.111000
     47 C47          1.4110     3.9350     4.9410 ca         1 3OX      -0.106000
     48 C48          2.3660     4.5730     4.1600 ca         1 3OX      -0.111000
     49 C49          2.8480     3.9640     3.0110 ca         1 3OX      -0.097500
     50 HN1         -0.8390     0.8140    -4.4220 hn         1 3OX       0.312500
     51 H2          -0.2130     1.3480    -1.5780 h1         1 3OX       0.065700
     52 H3          -2.2150     2.6520    -1.3690 h1         1 3OX       0.090700
     53 H4          -2.9590    -0.1830    -2.2060 hc         1 3OX       0.058700
     54 H4A         -1.9960     0.1800    -0.8040 hc         1 3OX       0.058700
     55 H5          -3.8100     1.6770     0.0550 hc         1 3OX       0.045700
     56 H7           1.0200     2.6300    -3.1960 h1         1 3OX       0.044200
     57 H7A         -0.4500     3.1290    -4.0370 h1         1 3OX       0.044200
     58 HO8         -3.1190     1.5900    -3.8110 ho         1 3OX       0.442000
     59 H9          -5.1390     2.1480    -1.8130 hc         1 3OX       0.061700
     60 H10         -5.9110    -0.7930    -2.0920 hc         1 3OX       0.037033
     61 H10A        -6.5970     0.5660    -2.9760 hc         1 3OX       0.037033
     62 H10B        -4.9230     0.1140    -3.2310 hc         1 3OX       0.037033
     63 H11         -6.2280     2.0170     0.4400 hc         1 3OX       0.037033
     64 H11A        -7.3530     1.7500    -0.8860 hc         1 3OX       0.037033
     65 H11B        -6.7810     0.3840     0.0620 hc         1 3OX       0.037033
     66 H14         -4.1820    -2.1600     2.1540 h1         1 3OX       0.057700
     67 H14A        -4.9870    -1.0730     3.2750 h1         1 3OX       0.057700
     68 H15         -2.7930    -0.1330     3.9600 hc         1 3OX       0.043700
     69 H16         -2.9780    -3.1750     4.1930 hc         1 3OX       0.035867
     70 H16A        -2.0620    -2.1160     5.2600 hc         1 3OX       0.035867
     71 H16B        -3.8210    -2.0210     5.2260 hc         1 3OX       0.035867
     72 H17         -1.5930    -2.3170     2.1900 hc         1 3OX       0.035867
     73 H17A        -1.4770    -0.5870     1.8760 hc         1 3OX       0.035867
     74 H17B        -0.6890    -1.2830     3.2910 hc         1 3OX       0.035867
     75 HN18        -3.9940     0.7820     1.9080 hn         1 3OX       0.308500
     76 H20         -1.1660    -2.9410    -2.0960 ha         1 3OX       0.144000
     77 H22          1.2160    -2.6330     1.4600 ha         1 3OX       0.133000
     78 H24          1.6120     0.2780    -1.6380 ha         1 3OX       0.129000
     79 H28         -2.1840    -4.7790    -1.0980 h1         1 3OX       0.059033
     80 H28A        -2.5110    -5.0240     0.6210 h1         1 3OX       0.059033
     81 H28B        -2.6120    -3.4100    -0.0530 h1         1 3OX       0.059033
     82 H30         -1.1030    -5.5970     2.6680 h1         1 3OX       0.103367
     83 H30A         0.5040    -6.3350     2.8650 h1         1 3OX       0.103367
     84 H30B         0.3260    -4.5610     2.9270 h1         1 3OX       0.103367
     85 HN35         1.2420     1.2110     0.5320 hn         1 3OX       0.309500
     86 H36          3.9390     1.6260     1.6380 h1         1 3OX       0.096700
     87 H39          3.4480     5.2050    -2.9420 ha         1 3OX       0.115000
     88 H40          5.4680     4.3000    -1.8540 ha         1 3OX       0.120000
     89 H41          5.2670     2.8560     0.1410 ha         1 3OX       0.122000
     90 H42          1.0170     3.3800     0.0580 ha         1 3OX       0.119000
     91 H43          1.0660     5.2250    -3.1800 h1         1 3OX       0.058200
     92 H43A         0.4790     5.7480    -1.6070 h1         1 3OX       0.058200
     93 H45          1.0640     1.0920     3.1400 ha         1 3OX       0.116500
     94 H46          0.2050     2.1750     5.1650 ha         1 3OX       0.113000
     95 H47          1.0290     4.4120     5.8340 ha         1 3OX       0.114000
     96 H48          2.7350     5.5510     4.4420 ha         1 3OX       0.113000
     97 H49          3.5850     4.4780     2.4060 ha         1 3OX       0.116500
@<TRIPOS>BOND
     1     1     2 1   
     2     1    25 1   
     3     1    50 1   
     4     2     3 1   
     5     2     7 1   
     6     2    51 1   
     7     3     4 1   
     8     3     8 1   
     9     3    52 1   
    10     4     5 1   
    11     4    53 1   
    12     4    54 1   
    13     5     6 1   
    14     5     9 1   
    15     5    55 1   
    16     6    12 2   
    17     6    18 1   
    18     7    13 1   
    19     7    56 1   
    20     7    57 1   
    21     8    58 1   
    22     9    10 1   
    23     9    11 1   
    24     9    59 1   
    25    10    60 1   
    26    10    61 1   
    27    10    62 1   
    28    11    63 1   
    29    11    64 1   
    30    11    65 1   
    31    13    43 1   
    32    14    15 1   
    33    14    18 1   
    34    14    66 1   
    35    14    67 1   
    36    15    16 1   
    37    15    17 1   
    38    15    68 1   
    39    16    69 1   
    40    16    70 1   
    41    16    71 1   
    42    17    72 1   
    43    17    73 1   
    44    17    74 1   
    45    18    75 1   
    46    19    20 ar  
    47    19    24 ar  
    48    19    25 1   
    49    20    21 ar  
    50    20    76 1   
    51    21    22 ar  
    52    21    27 1   
    53    22    23 ar  
    54    22    77 1   
    55    23    24 ar  
    56    23    26 1   
    57    24    78 1   
    58    25    32 2   
    59    26    31 2   
    60    26    35 1   
    61    27    28 1   
    62    27    29 1   
    63    28    79 1   
    64    28    80 1   
    65    28    81 1   
    66    29    30 1   
    67    29    33 2   
    68    29    34 2   
    69    30    82 1   
    70    30    83 1   
    71    30    84 1   
    72    35    36 1   
    73    35    85 1   
    74    36    37 1   
    75    36    44 1   
    76    36    86 1   
    77    37    41 ar  
    78    37    42 ar  
    79    38    39 ar  
    80    38    42 ar  
    81    38    43 1   
    82    39    40 ar  
    83    39    87 1   
    84    40    41 ar  
    85    40    88 1   
    86    41    89 1   
    87    42    90 1   
    88    43    91 1   
    89    43    92 1   
    90    44    45 ar  
    91    44    49 ar  
    92    45    46 ar  
    93    45    93 1   
    94    46    47 ar  
    95    46    94 1   
    96    47    48 ar  
    97    47    95 1   
    98    48    49 ar  
    99    48    96 1   
   100    49    97 1   
@<TRIPOS>SUBSTRUCTURE
     1 3OX         1 TEMP              0 ****  ****    0 ROOT
