@<TRIPOS>MOLECULE
3OX
   97   100     1     0     0
SMALL
No Charge or Current Charge


@<TRIPOS>ATOM
      1 N1          -0.4710     0.5820    -3.6520 ns         1 3OX      -0.518900
      2 C2          -0.7680     1.6150    -2.6250 c3         1 3OX       0.084700
      3 C3          -2.2970     1.7150    -2.3150 c3         1 3OX       0.156300
      4 C4          -2.8080     0.4840    -1.5150 c3         1 3OX      -0.106400
      5 C5          -4.1240     0.6910    -0.7030 c3         1 3OX      -0.123700
      6 C6          -4.2170    -0.3860     0.4060 c          1 3OX       0.603100
      7 C7          -0.1230     2.9760    -3.0050 c3         1 3OX       0.150600
      8 O8          -3.0400     1.8400    -3.5390 oh         1 3OX      -0.646000
      9 C9          -5.4380     0.8340    -1.5440 c3         1 3OX      -0.047700
     10 C10         -5.7420    -0.3620    -2.4810 c3         1 3OX      -0.089100
     11 C11         -6.6590     1.1440    -0.6450 c3         1 3OX      -0.089100
     12 O12         -4.3130    -1.5830     0.1710 o          1 3OX      -0.616100
     13 O13         -0.3620     3.9080    -1.9280 os         1 3OX      -0.453000
     14 C14         -3.9780    -0.7210     2.8940 c3         1 3OX       0.098000
     15 C15         -2.5310    -0.6780     3.4510 c3         1 3OX      -0.084700
     16 C16         -2.4040    -1.5440     4.7240 c3         1 3OX      -0.088100
     17 C17         -1.4670    -1.0770     2.4020 c3         1 3OX      -0.088100
     18 N18         -4.1360     0.1040     1.6920 ns         1 3OX      -0.504900
     19 C19          0.0930    -1.3160    -2.1100 ca         1 3OX      -0.134600
     20 C20         -0.4490    -2.5210    -1.6180 ca         1 3OX      -0.070000
     21 C21         -0.0630    -3.0560    -0.3690 ca         1 3OX       0.283000
     22 C22          0.9100    -2.3530     0.3800 ca         1 3OX      -0.051000
     23 C23          1.4760    -1.1500    -0.0910 ca         1 3OX      -0.141600
     24 C24          1.0840    -0.6640    -1.3590 ca         1 3OX      -0.084000
     25 C25         -0.3490    -0.7830    -3.4550 c          1 3OX       0.619700
     26 C26          2.4290    -0.3690     0.7870 c          1 3OX       0.618700
     27 N27         -0.6880    -4.2530     0.0860 nh         1 3OX      -0.789300
     28 C28         -2.1220    -4.5070    -0.1870 c3         1 3OX       0.194100
     29 S29          0.0680    -5.3510     1.1960 s6         1 3OX       1.208100
     30 C30         -0.2790    -4.6780     2.8160 c3         1 3OX      -0.354100
     31 O31          2.9420    -0.8260     1.7980 o          1 3OX      -0.565100
     32 O32         -0.5470    -1.5340    -4.3970 o          1 3OX      -0.581100
     33 O33         -0.6330    -6.6330     1.0700 o          1 3OX      -0.523500
     34 O34          1.5120    -5.2820     0.9560 o          1 3OX      -0.523500
     35 N35          2.6430     0.9190     0.3660 ns         1 3OX      -0.511900
     36 C36          3.2720     2.0010     1.1100 c3         1 3OX       0.209300
     37 C37          3.1970     3.2320     0.2090 ca         1 3OX      -0.108300
     38 C38          1.8610     4.6710    -1.2700 ca         1 3OX      -0.133300
     39 C39          3.0350     5.3490    -1.6520 ca         1 3OX      -0.095000
     40 C40          4.2770     4.9800    -1.1030 ca         1 3OX      -0.108000
     41 C41          4.3610     3.9180    -0.1850 ca         1 3OX      -0.087000
     42 C42          1.9510     3.6340    -0.3200 ca         1 3OX      -0.089000
     43 C43          0.5090     5.0590    -1.8780 c3         1 3OX       0.205900
     44 C44          2.6240     2.2600     2.4750 ca         1 3OX      -0.097300
     45 C45          1.2400     2.0640     2.6920 ca         1 3OX      -0.097500
     46 C46          0.6750     2.3060     3.9560 ca         1 3OX      -0.111000
     47 C47          1.4830     2.7510     5.0140 ca         1 3OX      -0.106000
     48 C48          2.8570     2.9540     4.8080 ca         1 3OX      -0.111000
     49 C49          3.4240     2.7100     3.5450 ca         1 3OX      -0.097500
     50 HN1         -0.6230     0.8460    -4.6180 hn         1 3OX       0.312500
     51 H2          -0.2920     1.3380    -1.6810 h1         1 3OX       0.065700
     52 H3          -2.4550     2.6020    -1.6860 h1         1 3OX       0.090700
     53 H4          -2.8900    -0.3950    -2.1640 hc         1 3OX       0.058700
     54 H4A         -2.0300     0.2290    -0.7840 hc         1 3OX       0.058700
     55 H5          -4.0060     1.6510    -0.1840 hc         1 3OX       0.045700
     56 H7           0.9540     2.8210    -3.1560 h1         1 3OX       0.044200
     57 H7A         -0.5510     3.3500    -3.9440 h1         1 3OX       0.044200
     58 HO8         -2.9410     0.9920    -4.0190 ho         1 3OX       0.442000
     59 H9          -5.3110     1.7120    -2.1890 hc         1 3OX       0.061700
     60 H10         -5.9070    -1.2850    -1.9140 hc         1 3OX       0.037033
     61 H10A        -6.6470    -0.1650    -3.0670 hc         1 3OX       0.037033
     62 H10B        -4.9260    -0.5330    -3.1920 hc         1 3OX       0.037033
     63 H11         -6.4640     2.0170    -0.0100 hc         1 3OX       0.037033
     64 H11A        -7.5420     1.3650    -1.2560 hc         1 3OX       0.037033
     65 H11B        -6.9000     0.2940     0.0040 hc         1 3OX       0.037033
     66 H14         -4.2530    -1.7600     2.6700 h1         1 3OX       0.057700
     67 H14A        -4.6740    -0.3520     3.6590 h1         1 3OX       0.057700
     68 H15         -2.3240     0.3590     3.7440 hc         1 3OX       0.043700
     69 H16         -2.5890    -2.6010     4.4970 hc         1 3OX       0.035867
     70 H16A        -1.3990    -1.4560     5.1550 hc         1 3OX       0.035867
     71 H16B        -3.1270    -1.2240     5.4850 hc         1 3OX       0.035867
     72 H17         -1.6750    -2.0750     2.0010 hc         1 3OX       0.035867
     73 H17A        -1.4480    -0.3680     1.5660 hc         1 3OX       0.035867
     74 H17B        -0.4650    -1.0840     2.8480 hc         1 3OX       0.035867
     75 HN18        -4.0650     1.1090     1.7900 hn         1 3OX       0.308500
     76 H20         -1.1850    -3.0460    -2.2200 ha         1 3OX       0.144000
     77 H22          1.2210    -2.7120     1.3520 ha         1 3OX       0.133000
     78 H24          1.5550     0.2170    -1.7890 ha         1 3OX       0.129000
     79 H28         -2.2370    -5.2190    -1.0140 h1         1 3OX       0.059033
     80 H28A        -2.6320    -4.9110     0.6980 h1         1 3OX       0.059033
     81 H28B        -2.6400    -3.5780    -0.4550 h1         1 3OX       0.059033
     82 H30         -1.3670    -4.6230     2.9200 h1         1 3OX       0.103367
     83 H30A         0.1490    -5.3670     3.5510 h1         1 3OX       0.103367
     84 H30B         0.1720    -3.6880     2.9020 h1         1 3OX       0.103367
     85 HN35         2.1910     1.1820    -0.4960 hn         1 3OX       0.309500
     86 H36          4.3260     1.7290     1.2650 h1         1 3OX       0.096700
     87 H39          2.9880     6.1600    -2.3750 ha         1 3OX       0.115000
     88 H40          5.1800     5.5060    -1.4060 ha         1 3OX       0.120000
     89 H41          5.3320     3.6200     0.2050 ha         1 3OX       0.122000
     90 H42          1.0480     3.1140    -0.0130 ha         1 3OX       0.119000
     91 H43          0.6500     5.4870    -2.8800 h1         1 3OX       0.058200
     92 H43A         0.0610     5.8380    -1.2480 h1         1 3OX       0.058200
     93 H45          0.5960     1.7210     1.8860 ha         1 3OX       0.116500
     94 H46         -0.3900     2.1490     4.1140 ha         1 3OX       0.113000
     95 H47          1.0450     2.9390     5.9930 ha         1 3OX       0.114000
     96 H48          3.4840     3.3000     5.6270 ha         1 3OX       0.113000
     97 H49          4.4900     2.8720     3.3970 ha         1 3OX       0.116500
@<TRIPOS>BOND
     1     1     2 1   
     2     1    25 1   
     3     1    50 1   
     4     2     3 1   
     5     2     7 1   
     6     2    51 1   
     7     3     4 1   
     8     3     8 1   
     9     3    52 1   
    10     4     5 1   
    11     4    53 1   
    12     4    54 1   
    13     5     6 1   
    14     5     9 1   
    15     5    55 1   
    16     6    12 2   
    17     6    18 1   
    18     7    13 1   
    19     7    56 1   
    20     7    57 1   
    21     8    58 1   
    22     9    10 1   
    23     9    11 1   
    24     9    59 1   
    25    10    60 1   
    26    10    61 1   
    27    10    62 1   
    28    11    63 1   
    29    11    64 1   
    30    11    65 1   
    31    13    43 1   
    32    14    15 1   
    33    14    18 1   
    34    14    66 1   
    35    14    67 1   
    36    15    16 1   
    37    15    17 1   
    38    15    68 1   
    39    16    69 1   
    40    16    70 1   
    41    16    71 1   
    42    17    72 1   
    43    17    73 1   
    44    17    74 1   
    45    18    75 1   
    46    19    20 ar  
    47    19    24 ar  
    48    19    25 1   
    49    20    21 ar  
    50    20    76 1   
    51    21    22 ar  
    52    21    27 1   
    53    22    23 ar  
    54    22    77 1   
    55    23    24 ar  
    56    23    26 1   
    57    24    78 1   
    58    25    32 2   
    59    26    31 2   
    60    26    35 1   
    61    27    28 1   
    62    27    29 1   
    63    28    79 1   
    64    28    80 1   
    65    28    81 1   
    66    29    30 1   
    67    29    33 2   
    68    29    34 2   
    69    30    82 1   
    70    30    83 1   
    71    30    84 1   
    72    35    36 1   
    73    35    85 1   
    74    36    37 1   
    75    36    44 1   
    76    36    86 1   
    77    37    41 ar  
    78    37    42 ar  
    79    38    39 ar  
    80    38    42 ar  
    81    38    43 1   
    82    39    40 ar  
    83    39    87 1   
    84    40    41 ar  
    85    40    88 1   
    86    41    89 1   
    87    42    90 1   
    88    43    91 1   
    89    43    92 1   
    90    44    45 ar  
    91    44    49 ar  
    92    45    46 ar  
    93    45    93 1   
    94    46    47 ar  
    95    46    94 1   
    96    47    48 ar  
    97    47    95 1   
    98    48    49 ar  
    99    48    96 1   
   100    49    97 1   
@<TRIPOS>SUBSTRUCTURE
     1 3OX         1 TEMP              0 ****  ****    0 ROOT
