@<TRIPOS>MOLECULE
3OY
   77    81     1     0     0
SMALL
No Charge or Current Charge


@<TRIPOS>ATOM
      1 C1          -2.8360     0.1770     3.4790 ca         1 3OY       0.381900
      2 N2          -2.2940     0.4730     2.2780 nb         1 3OY      -0.769000
      3 C3          -3.9470    -0.6640     3.6300 ca         1 3OY      -0.187000
      4 C4          -2.8490    -0.0800     1.1750 ca         1 3OY       0.613300
      5 C5          -4.5380    -1.2260     2.4890 ca         1 3OY       0.021000
      6 C6          -3.9830    -0.9230     1.2300 ca         1 3OY      -0.106000
      7 C7          -5.6810    -2.3200     0.1720 ca         1 3OY      -0.037900
      8 C8          -4.5630    -1.4740     0.0660 ca         1 3OY      -0.027000
      9 C9          -6.2290    -2.6200     1.4310 ca         1 3OY      -0.061000
     10 C10         -5.6570    -2.0710     2.5920 ca         1 3OY      -0.112000
     11 Br11        -6.4570    -3.0700    -1.4060 br         1 3OY      -0.091100
     12 O12         -2.3240     0.2400    -0.0620 os         1 3OY      -0.458300
     13 C13         -0.9030    -0.0730    -0.1000 c5         1 3OY       0.168300
     14 C14         -0.4020     0.2720    -1.5240 c5         1 3OY      -0.088400
     15 C15          0.8990    -0.5780    -1.6270 c5         1 3OY       0.030700
     16 N16          0.4560    -1.8310    -0.9560 n          1 3OY      -0.392800
     17 C17         -0.7010    -1.6210    -0.0480 c5         1 3OY       0.083000
     18 C18          2.0700     0.1570    -0.8990 c          1 3OY       0.586100
     19 O19          2.4620    -0.0280     0.2460 o          1 3OY      -0.555100
     20 N20          2.6400     1.0770    -1.7620 ns         1 3OY      -0.485900
     21 C21          3.7440     1.9590    -1.4160 cx         1 3OY      -0.063600
     22 C22          5.1090     1.3100    -1.2410 cx         1 3OY      -0.030500
     23 C23          4.8120     2.1060    -2.4860 cx         1 3OY      -0.101400
     24 C24          6.1120     1.8320    -0.2700 c2         1 3OY      -0.193200
     25 C25          6.0830     1.5920     1.0500 c2         1 3OY      -0.289000
     26 C26          3.4030     3.1980    -0.5770 c          1 3OY       0.680100
     27 O27          3.3210     3.1780     0.6420 o          1 3OY      -0.549100
     28 N28          3.1620     4.3080    -1.3200 ns         1 3OY      -0.580300
     29 S29          2.8390     5.8470    -0.7810 s6         1 3OY       1.265800
     30 O30          2.5550     6.6700    -1.9600 o          1 3OY      -0.526000
     31 O31          1.8760     5.7730     0.3230 o          1 3OY      -0.526000
     32 C32          4.4680     6.3960    -0.0930 cx         1 3OY      -0.445700
     33 C33          4.8770     6.0600     1.3280 cx         1 3OY      -0.057900
     34 C34          4.5400     7.4890     0.9550 cx         1 3OY      -0.057900
     35 C35          1.2400    -3.0080    -0.9770 c          1 3OY       0.605100
     36 O36          2.3240    -3.0070    -1.5540 o          1 3OY      -0.625100
     37 C37          0.6780    -4.3080    -0.3150 c3         1 3OY       0.045700
     38 N38          1.7530    -5.3150    -0.1640 ns         1 3OY      -0.503900
     39 C39         -0.5080    -4.9060    -1.1110 c3         1 3OY      -0.110100
     40 C40          1.7420    -6.3630     0.7280 c          1 3OY       0.602100
     41 O41          0.8100    -6.5580     1.4950 o          1 3OY      -0.609100
     42 C42          2.9670    -7.2810     0.6680 c3         1 3OY      -0.154400
     43 C43          3.9010    -7.0670     1.8790 c3         1 3OY      -0.078100
     44 H1          -2.3640     0.6310     4.3500 h4         1 3OY       0.026100
     45 H3          -4.3390    -0.8670     4.6220 ha         1 3OY       0.130000
     46 H8          -4.1540    -1.2550    -0.9180 ha         1 3OY       0.144000
     47 H9          -7.0940    -3.2750     1.5080 ha         1 3OY       0.132000
     48 H10         -6.0830    -2.3030     3.5650 ha         1 3OY       0.124000
     49 H13         -0.3340     0.4630     0.6740 h1         1 3OY       0.101700
     50 H14         -1.1290    -0.0380    -2.2850 hc         1 3OY       0.074700
     51 H14A        -0.2280     1.3460    -1.6600 hc         1 3OY       0.074700
     52 H15          1.1860    -0.7590    -2.6710 h1         1 3OY       0.077700
     53 H17         -0.4930    -1.9570     0.9760 h1         1 3OY       0.071700
     54 H17A        -1.5890    -2.1470    -0.4190 h1         1 3OY       0.071700
     55 HN20         2.2340     1.1350    -2.6900 hn         1 3OY       0.323500
     56 H22          5.1540     0.2300    -1.3640 hc         1 3OY       0.098700
     57 H23          4.6910     1.5530    -3.4150 hc         1 3OY       0.085200
     58 H23A         5.3120     3.0650    -2.5980 hc         1 3OY       0.085200
     59 H24          6.9180     2.4330    -0.6990 ha         1 3OY       0.187000
     60 H25          6.8440     1.9910     1.7210 ha         1 3OY       0.165500
     61 H25A         5.2920     0.9930     1.5040 ha         1 3OY       0.165500
     62 HN28         3.2360     4.2640    -2.3200 hn         1 3OY       0.345500
     63 H32          5.2130     6.3670    -0.8840 h1         1 3OY       0.124700
     64 H33          4.1720     5.5280     1.9650 hc         1 3OY       0.090700
     65 H33A         5.9210     5.8180     1.5150 hc         1 3OY       0.090700
     66 H34          5.3600     8.2010     0.8950 hc         1 3OY       0.090700
     67 H34A         3.6110     7.9040     1.3420 hc         1 3OY       0.090700
     68 H37          0.3280    -4.0330     0.6880 h1         1 3OY       0.094700
     69 HN38         2.5770    -5.2220    -0.7500 hn         1 3OY       0.333500
     70 H39         -0.9120    -5.7900    -0.6020 hc         1 3OY       0.049700
     71 H39A        -1.3240    -4.1850    -1.2230 hc         1 3OY       0.049700
     72 H39B        -0.1840    -5.2080    -2.1140 hc         1 3OY       0.049700
     73 H42          2.6290    -8.3230     0.6760 hc         1 3OY       0.055700
     74 H42A         3.5420    -7.0850    -0.2460 hc         1 3OY       0.055700
     75 H43          4.7700    -7.7330     1.8160 hc         1 3OY       0.043033
     76 H43A         4.2630    -6.0320     1.9120 hc         1 3OY       0.043033
     77 H43B         3.3740    -7.2780     2.8180 hc         1 3OY       0.043033
@<TRIPOS>BOND
     1     1     2 ar  
     2     1     3 ar  
     3     1    44 1   
     4     2     4 ar  
     5     3     5 ar  
     6     3    45 1   
     7     4     6 ar  
     8     4    12 1   
     9     5     6 ar  
    10     5    10 ar  
    11     6     8 ar  
    12     7     8 ar  
    13     7     9 ar  
    14     7    11 1   
    15     8    46 1   
    16     9    10 ar  
    17     9    47 1   
    18    10    48 1   
    19    12    13 1   
    20    13    14 1   
    21    13    17 1   
    22    13    49 1   
    23    14    15 1   
    24    14    50 1   
    25    14    51 1   
    26    15    16 1   
    27    15    18 1   
    28    15    52 1   
    29    16    17 1   
    30    16    35 1   
    31    17    53 1   
    32    17    54 1   
    33    18    19 2   
    34    18    20 1   
    35    20    21 1   
    36    20    55 1   
    37    21    22 1   
    38    21    23 1   
    39    21    26 1   
    40    22    23 1   
    41    22    24 1   
    42    22    56 1   
    43    23    57 1   
    44    23    58 1   
    45    24    25 2   
    46    24    59 1   
    47    25    60 1   
    48    25    61 1   
    49    26    27 2   
    50    26    28 1   
    51    28    29 1   
    52    28    62 1   
    53    29    30 2   
    54    29    31 2   
    55    29    32 1   
    56    32    33 1   
    57    32    34 1   
    58    32    63 1   
    59    33    34 1   
    60    33    64 1   
    61    33    65 1   
    62    34    66 1   
    63    34    67 1   
    64    35    36 2   
    65    35    37 1   
    66    37    38 1   
    67    37    39 1   
    68    37    68 1   
    69    38    40 1   
    70    38    69 1   
    71    39    70 1   
    72    39    71 1   
    73    39    72 1   
    74    40    41 2   
    75    40    42 1   
    76    42    43 1   
    77    42    73 1   
    78    42    74 1   
    79    43    75 1   
    80    43    76 1   
    81    43    77 1   
@<TRIPOS>SUBSTRUCTURE
     1 3OY         1 TEMP              0 ****  ****    0 ROOT
