@<TRIPOS>MOLECULE
3OY
   77    81     1     0     0
SMALL
abcg2


@<TRIPOS>ATOM
      1 C1          -2.8970    -1.3780     3.3300 ca         1 3OY       0.381900
      2 N2          -2.2360    -1.0560     2.1930 nb         1 3OY      -0.769000
      3 C3          -4.2290    -1.1690     3.5110 ca         1 3OY      -0.187000
      4 C4          -2.8960    -0.5100     1.2220 ca         1 3OY       0.613300
      5 C5          -4.9720    -0.5750     2.4610 ca         1 3OY       0.021000
      6 C6          -4.2970    -0.2240     1.2730 ca         1 3OY      -0.106000
      7 C7          -6.3370     0.6040     0.3370 ca         1 3OY      -0.037900
      8 C8          -4.9950     0.3720     0.2040 ca         1 3OY      -0.027000
      9 C9          -7.0320     0.2600     1.5120 ca         1 3OY      -0.061000
     10 C10         -6.3560    -0.3180     2.5520 ca         1 3OY      -0.112000
     11 BR11        -7.2940     1.4010    -1.0800 br         1 3OY      -0.091100
     12 O12         -2.2780    -0.1840     0.0870 os         1 3OY      -0.458300
     13 C13         -0.8830    -0.4100    -0.0180 c5         1 3OY       0.168300
     14 C14         -0.3850     0.2250    -1.3070 c5         1 3OY      -0.088400
     15 C15          0.9050    -0.5400    -1.6110 c5         1 3OY       0.030700
     16 N16          0.6770    -1.8410    -1.0070 n          1 3OY      -0.392800
     17 C17         -0.5160    -1.8870    -0.1760 c5         1 3OY       0.083000
     18 C18          2.1020     0.1280    -0.9470 c          1 3OY       0.586100
     19 O19          2.2810     0.0800     0.2530 o          1 3OY      -0.555100
     20 N20          2.9030     0.8400    -1.7740 ns         1 3OY      -0.485900
     21 C21          4.0800     1.4580    -1.2690 cx         1 3OY      -0.063600
     22 C22          5.1960     0.5030    -0.8450 cx         1 3OY      -0.030500
     23 C23          5.3360     1.3160    -2.0840 cx         1 3OY      -0.101400
     24 C24          6.0640     0.6940     0.3330 c2         1 3OY      -0.193200
     25 C25          6.2180    -0.2430     1.2640 c2         1 3OY      -0.289000
     26 C26          3.8790     2.7410    -0.5280 c          1 3OY       0.680100
     27 O27          4.7360     3.2760     0.1350 o          1 3OY      -0.549100
     28 N28          2.6280     3.2840    -0.6970 ns         1 3OY      -0.580300
     29 S29          2.0230     4.6180     0.1200 s6         1 3OY       1.265800
     30 O30          0.6310     4.6550    -0.2920 o          1 3OY      -0.526000
     31 O31          2.3520     4.5000     1.5270 o          1 3OY      -0.526000
     32 C32          2.8620     5.9910    -0.5690 cx         1 3OY      -0.445700
     33 C33          4.1390     6.4770     0.0380 cx         1 3OY      -0.057900
     34 C34          2.8880     7.2570     0.2400 cx         1 3OY      -0.057900
     35 C35          1.6350    -2.7760    -1.1110 c          1 3OY       0.605100
     36 O36          2.6700    -2.5560    -1.7270 o          1 3OY      -0.625100
     37 C37          1.3560    -4.1390    -0.4940 c3         1 3OY       0.045700
     38 N38          2.6170    -4.8040    -0.2830 ns         1 3OY      -0.503900
     39 C39          0.4300    -4.9450    -1.4110 c3         1 3OY      -0.110100
     40 C40          2.8030    -5.7520     0.6510 c          1 3OY       0.602100
     41 O41          1.9270    -6.0860     1.4390 o          1 3OY      -0.609100
     42 C42          4.1730    -6.3950     0.6430 c3         1 3OY      -0.154400
     43 C43          4.6430    -6.8030     2.0300 c3         1 3OY      -0.078100
     44 H1          -2.2960    -1.8280     4.1110 h4         1 3OY       0.026100
     45 H3          -4.7140    -1.4520     4.4350 ha         1 3OY       0.130000
     46 H8          -4.4710     0.6410    -0.7030 ha         1 3OY       0.144000
     47 H9          -8.0940     0.4500     1.5970 ha         1 3OY       0.132000
     48 H10         -6.8880    -0.5850     3.4560 ha         1 3OY       0.124000
     49 H13         -0.3710     0.0080     0.8500 h1         1 3OY       0.101700
     50 H14         -1.1040     0.0510    -2.1090 hc         1 3OY       0.074700
     51 H14A        -0.2350     1.3020    -1.2220 hc         1 3OY       0.074700
     52 H15          1.0640    -0.6310    -2.6880 h1         1 3OY       0.077700
     53 H17         -0.3210    -2.3590     0.7850 h1         1 3OY       0.071700
     54 H17A        -1.3280    -2.4280    -0.6710 h1         1 3OY       0.071700
     55 HN20         2.7630     0.7900    -2.7720 hn         1 3OY       0.323500
     56 H22          4.8910    -0.5260    -1.0020 hc         1 3OY       0.098700
     57 H23          5.2440     0.8270    -3.0450 hc         1 3OY       0.085200
     58 H23A         6.0190     2.1560    -2.0660 hc         1 3OY       0.085200
     59 H24          6.6210     1.6180     0.4070 ha         1 3OY       0.187000
     60 H25          6.8860    -0.0970     2.1020 ha         1 3OY       0.165500
     61 H25A         5.6840    -1.1850     1.2240 ha         1 3OY       0.165500
     62 HN28         1.9950     2.8690    -1.3690 hn         1 3OY       0.345500
     63 H32          2.7160     6.0540    -1.6410 h1         1 3OY       0.124700
     64 H33          4.5380     5.9340     0.8830 hc         1 3OY       0.090700
     65 H33A         4.8800     6.8430    -0.6590 hc         1 3OY       0.090700
     66 H34          2.7380     8.1710    -0.3180 hc         1 3OY       0.090700
     67 H34A         2.4390     7.2500     1.2240 hc         1 3OY       0.090700
     68 H37          0.8740    -4.0200     0.4770 h1         1 3OY       0.094700
     69 HN38         3.3640    -4.5880    -0.9250 hn         1 3OY       0.333500
     70 H39          0.2100    -5.9090    -0.9540 hc         1 3OY       0.049700
     71 H39A        -0.5170    -4.4360    -1.5840 hc         1 3OY       0.049700
     72 H39B         0.9050    -5.1200    -2.3760 hc         1 3OY       0.049700
     73 H42          4.1120    -7.2780    -0.0010 hc         1 3OY       0.055700
     74 H42A         4.9010    -5.7310     0.1730 hc         1 3OY       0.055700
     75 H43          5.6180    -7.2860     1.9710 hc         1 3OY       0.043033
     76 H43A         4.7420    -5.9390     2.6880 hc         1 3OY       0.043033
     77 H43B         3.9530    -7.5040     2.4960 hc         1 3OY       0.043033
@<TRIPOS>BOND
     1     1     2 ar  
     2     1     3 ar  
     3     1    44 1   
     4     2     4 ar  
     5     3     5 ar  
     6     3    45 1   
     7     4     6 ar  
     8     4    12 1   
     9     5     6 ar  
    10     5    10 ar  
    11     6     8 ar  
    12     7     8 ar  
    13     7     9 ar  
    14     7    11 1   
    15     8    46 1   
    16     9    10 ar  
    17     9    47 1   
    18    10    48 1   
    19    12    13 1   
    20    13    14 1   
    21    13    17 1   
    22    13    49 1   
    23    14    15 1   
    24    14    50 1   
    25    14    51 1   
    26    15    16 1   
    27    15    18 1   
    28    15    52 1   
    29    16    17 1   
    30    16    35 1   
    31    17    53 1   
    32    17    54 1   
    33    18    19 2   
    34    18    20 1   
    35    20    21 1   
    36    20    55 1   
    37    21    22 1   
    38    21    23 1   
    39    21    26 1   
    40    22    23 1   
    41    22    24 1   
    42    22    56 1   
    43    23    57 1   
    44    23    58 1   
    45    24    25 2   
    46    24    59 1   
    47    25    60 1   
    48    25    61 1   
    49    26    27 2   
    50    26    28 1   
    51    28    29 1   
    52    28    62 1   
    53    29    30 2   
    54    29    31 2   
    55    29    32 1   
    56    32    33 1   
    57    32    34 1   
    58    32    63 1   
    59    33    34 1   
    60    33    64 1   
    61    33    65 1   
    62    34    66 1   
    63    34    67 1   
    64    35    36 2   
    65    35    37 1   
    66    37    38 1   
    67    37    39 1   
    68    37    68 1   
    69    38    40 1   
    70    38    69 1   
    71    39    70 1   
    72    39    71 1   
    73    39    72 1   
    74    40    41 2   
    75    40    42 1   
    76    42    43 1   
    77    42    73 1   
    78    42    74 1   
    79    43    75 1   
    80    43    76 1   
    81    43    77 1   
@<TRIPOS>SUBSTRUCTURE
     1 3OY         1 TEMP              0 ****  ****    0 ROOT
