@<TRIPOS>MOLECULE
3OZ
   54    57     1     0     0
SMALL
bcc


@<TRIPOS>ATOM
      1 C1          -3.9840     0.6800    -0.3830 ca         1 3OZ       0.082600
      2 C2          -4.4900     1.4800    -1.4070 ca         1 3OZ      -0.006600
      3 C3          -4.5640     0.7870     0.8780 ca         1 3OZ      -0.115000
      4 C4          -5.5410     2.3570    -1.1940 ca         1 3OZ      -0.100000
      5 C5          -5.6020     1.6700     1.1160 ca         1 3OZ      -0.103000
      6 C6          -6.0830     2.4490     0.0760 ca         1 3OZ       0.013400
      7 CL7         -7.3860     3.5500     0.3590 cl         1 3OZ      -0.109400
      8 CL8         -3.7950     1.3860    -2.9870 cl         1 3OZ      -0.103400
      9 N9          -2.9380    -0.2140    -0.6320 ns         1 3OZ      -0.493100
     10 C10         -1.8330    -0.3450     0.1510 c          1 3OZ       0.684100
     11 C11         -0.8870    -1.4520    -0.3040 c5         1 3OZ       0.150800
     12 O12         -1.6380     0.3090     1.1530 o          1 3OZ      -0.542100
     13 C13         -1.2290    -2.7040     0.4710 ca         1 3OZ      -0.131300
     14 C14         -0.2520    -2.9040     1.4330 ca         1 3OZ      -0.087300
     15 C15          0.7750    -1.8110     1.3330 c5         1 3OZ       0.206100
     16 N16          0.4880    -1.1430     0.0590 n3         1 3OZ      -0.694600
     17 C17          1.4460    -1.4890    -0.9800 c3         1 3OZ       0.231100
     18 C18         -2.3120    -3.5580     0.3540 ca         1 3OZ      -0.104000
     19 C19         -2.3950    -4.6420     1.2220 ca         1 3OZ      -0.139000
     20 C20         -1.4150    -4.8490     2.1880 ca         1 3OZ      -0.123000
     21 C21         -0.3360    -3.9780     2.3040 ca         1 3OZ      -0.111000
     22 C22          5.2140    -1.0320    -0.5780 ca         1 3OZ      -0.131300
     23 C23          5.2930     0.3480    -0.3350 ca         1 3OZ       0.178100
     24 C24          3.9600    -1.5980    -0.7680 ca         1 3OZ      -0.097000
     25 C25          4.1270     1.1100    -0.2850 ca         1 3OZ      -0.237000
     26 C26          2.7870    -0.8500    -0.7320 ca         1 3OZ      -0.175300
     27 C27          2.8900     0.5100    -0.4800 ca         1 3OZ      -0.065000
     28 C30          6.6830     2.2290     0.0700 c3         1 3OZ      -0.023600
     29 C31          8.1660     2.5970     0.2460 c          1 3OZ       0.939600
     30 O32          8.3550     3.8180     0.4160 o          1 3OZ      -0.818300
     31 O33          9.0100     1.6910     0.2090 o          1 3OZ      -0.818300
     32 H3          -4.2140     0.1600     1.6860 ha         1 3OZ       0.160000
     33 H4          -5.9160     2.9640    -2.0060 ha         1 3OZ       0.159000
     34 H5          -6.0370     1.7370     2.1030 ha         1 3OZ       0.151000
     35 HN9         -2.9480    -0.7020    -1.5150 hn         1 3OZ       0.326500
     36 H11         -0.9810    -1.6030    -1.3840 h1         1 3OZ       0.066700
     37 H15          0.6840    -1.1170     2.1730 h1         1 3OZ       0.081700
     38 H15A         1.7980    -2.1930     1.3510 h1         1 3OZ       0.081700
     39 H17          1.5780    -2.5780    -1.0920 h1         1 3OZ       0.028700
     40 H17A         1.0490    -1.1280    -1.9320 h1         1 3OZ       0.028700
     41 H18         -3.0760    -3.3980    -0.3970 ha         1 3OZ       0.127000
     42 H19         -3.2260    -5.3310     1.1450 ha         1 3OZ       0.126000
     43 H20         -1.4910    -5.6990     2.8540 ha         1 3OZ       0.127000
     44 H21          0.4240    -4.1450     3.0570 ha         1 3OZ       0.138000
     45 H24          3.8970    -2.6670    -0.9470 ha         1 3OZ       0.108000
     46 H25          4.1640     2.1740    -0.0930 ha         1 3OZ       0.143000
     47 H27          1.9940     1.1170    -0.4260 ha         1 3OZ       0.129000
     48 H28          7.0380    -1.7890     0.2960 hc         1 3OZ       0.039367
     49 H28A         6.2120    -2.9170    -0.7770 hc         1 3OZ       0.039367
     50 H28B         7.1210    -1.5610    -1.4380 hc         1 3OZ       0.039367
     51 H30          6.2680     2.8060    -0.7650 h1         1 3OZ       0.018700
     52 H30A         6.1350     2.5360     0.9700 h1         1 3OZ       0.018700
     53 C28          6.4590    -1.8670    -0.6250 c3         1 3OZ      -0.026800
     54 O29          6.5310     0.8430    -0.1580 os         1 3OZ      -0.269900
@<TRIPOS>BOND
     1     1     2 ar  
     2     1     3 ar  
     3     1     9 1   
     4     2     4 ar  
     5     2     8 1   
     6     3     5 ar  
     7     3    32 1   
     8     4     6 ar  
     9     4    33 1   
    10     5     6 ar  
    11     5    34 1   
    12     6     7 1   
    13     9    10 1   
    14     9    35 1   
    15    10    11 1   
    16    10    12 2   
    17    11    13 1   
    18    11    16 1   
    19    11    36 1   
    20    13    14 ar  
    21    13    18 ar  
    22    14    15 1   
    23    14    21 ar  
    24    15    16 1   
    25    15    37 1   
    26    15    38 1   
    27    16    17 1   
    28    17    26 1   
    29    17    39 1   
    30    17    40 1   
    31    18    19 ar  
    32    18    41 1   
    33    19    20 ar  
    34    19    42 1   
    35    20    21 ar  
    36    20    43 1   
    37    21    44 1   
    38    22    23 ar  
    39    22    24 ar  
    40    22    53 1   
    41    23    25 ar  
    42    23    54 1   
    43    24    26 ar  
    44    24    45 1   
    45    25    27 ar  
    46    25    46 1   
    47    26    27 ar  
    48    27    47 1   
    49    28    29 1   
    50    28    51 1   
    51    28    52 1   
    52    28    54 1   
    53    29    30 1   
    54    29    31 1   
    55    48    53 1   
    56    49    53 1   
    57    50    53 1   
@<TRIPOS>SUBSTRUCTURE
     1 3OZ         1 TEMP              0 ****  ****    0 ROOT
