@<TRIPOS>MOLECULE
3OZ
   54    57     1     0     0
SMALL
No Charge or Current Charge


@<TRIPOS>ATOM
      1 C1          -3.2750     1.1070    -0.1640 ca         1 3OZ      -0.010000
      2 C2          -2.8840     2.2080    -0.9600 ca         1 3OZ       0.085000
      3 C3          -4.4410     1.2200     0.6290 ca         1 3OZ      -0.097000
      4 C4          -3.6390     3.3930    -0.9650 ca         1 3OZ      -0.082000
      5 C5          -5.1930     2.4090     0.6210 ca         1 3OZ      -0.085000
      6 C6          -4.7920     3.4930    -0.1750 ca         1 3OZ       0.105000
      7 Cl7         -5.7360     4.9760    -0.1810 cl         1 3OZ      -0.201000
      8 Cl8         -1.4400     2.1180    -1.9710 cl         1 3OZ      -0.195000
      9 N9          -2.4700    -0.0660    -0.2000 ns         1 3OZ      -0.167000
     10 C10         -2.5640    -1.2930     0.4440 c          1 3OZ       0.617100
     11 C11         -1.3550    -2.1720    -0.0400 c5         1 3OZ       0.150800
     12 O12         -3.4430    -1.6080     1.2430 o          1 3OZ      -0.542100
     13 C13         -1.2200    -3.4490     0.7600 ca         1 3OZ      -0.131300
     14 C14         -0.1400    -3.3660     1.6100 ca         1 3OZ      -0.087300
     15 C15          0.5410    -2.0320     1.4530 c5         1 3OZ       0.206100
     16 N16          0.0100    -1.5100     0.1370 n3         1 3OZ      -0.694600
     17 C17          0.9230    -1.7100    -1.0080 c3         1 3OZ       0.231100
     18 C18         -2.0150    -4.6060     0.7060 ca         1 3OZ      -0.086000
     19 C19         -1.6900    -5.6860     1.5500 ca         1 3OZ      -0.121000
     20 C20         -0.5840    -5.5990     2.4250 ca         1 3OZ      -0.105000
     21 C21          0.2030    -4.4300     2.4590 ca         1 3OZ      -0.093000
     22 C22          4.6620    -0.9140    -0.6030 ca         1 3OZ      -0.131300
     23 C23          4.6460     0.4980    -0.5770 ca         1 3OZ       0.178100
     24 C24          3.4530    -1.6240    -0.7430 ca         1 3OZ      -0.079000
     25 C25          3.4160     1.1840    -0.6920 ca         1 3OZ      -0.219000
     26 C26          2.2280    -0.9390    -0.8570 ca         1 3OZ      -0.175300
     27 C27          2.2160     0.4670    -0.8310 ca         1 3OZ      -0.047000
     28 C30          5.9290     2.6160    -0.4000 c3         1 3OZ      -0.000400
     29 C31          7.3860     3.1440    -0.2370 c          1 3OZ       0.729000
     30 O32          7.5450     4.3570    -0.1960 o          1 3OZ      -0.713000
     31 O33          8.3140     2.3480    -0.1570 o          1 3OZ      -0.713000
     32 H3          -4.7820     0.4040     1.2580 ha         1 3OZ       0.142000
     33 H4          -3.3290     4.2320    -1.5820 ha         1 3OZ       0.141000
     34 H5          -6.0880     2.4900     1.2330 ha         1 3OZ       0.133000
     35 HN9         -1.6560     0.0160    -0.7960 hn         1 3OZ       0.160000
     36 H11         -1.5490    -2.4040    -1.0970 h1         1 3OZ       0.066700
     37 H15          0.2570    -1.3720     2.2850 h1         1 3OZ       0.081700
     38 H15A         1.6350    -2.1310     1.4700 h1         1 3OZ       0.081700
     39 H17          1.1390    -2.7800    -1.1320 h1         1 3OZ       0.028700
     40 H17A         0.4340    -1.3720    -1.9310 h1         1 3OZ       0.028700
     41 H18         -2.8640    -4.6670     0.0290 ha         1 3OZ       0.109000
     42 H19         -2.2920    -6.5910     1.5270 ha         1 3OZ       0.108000
     43 H20         -0.3380    -6.4360     3.0740 ha         1 3OZ       0.109000
     44 H21          1.0590    -4.3550     3.1260 ha         1 3OZ       0.120000
     45 H24          3.4630    -2.7110    -0.7620 ha         1 3OZ       0.090000
     46 H25          3.3720     2.2680    -0.6740 ha         1 3OZ       0.125000
     47 H27          1.2730     1.0030    -0.9140 ha         1 3OZ       0.111000
     48 H28          6.4760    -1.4470     0.4700 hc         1 3OZ       0.039367
     49 H28A         5.8250    -2.7630    -0.5160 hc         1 3OZ       0.039367
     50 H28B         6.6620    -1.4130    -1.2920 hc         1 3OZ       0.039367
     51 H30          5.5250     3.0410    -1.3280 h1         1 3OZ       0.018700
     52 H30A         5.3410     3.0050     0.4410 h1         1 3OZ       0.018700
     53 C28          5.9770    -1.6780    -0.4790 c3         1 3OZ      -0.026800
     54 O29          5.8470     1.1700    -0.4380 os         1 3OZ      -0.293100
@<TRIPOS>BOND
     1     1     2 ar  
     2     1     3 ar  
     3     1     9 1   
     4     2     4 ar  
     5     2     8 1   
     6     3     5 ar  
     7     3    32 1   
     8     4     6 ar  
     9     4    33 1   
    10     5     6 ar  
    11     5    34 1   
    12     6     7 1   
    13     9    10 1   
    14     9    35 1   
    15    10    11 1   
    16    10    12 2   
    17    11    13 1   
    18    11    16 1   
    19    11    36 1   
    20    13    14 ar  
    21    13    18 ar  
    22    14    15 1   
    23    14    21 ar  
    24    15    16 1   
    25    15    37 1   
    26    15    38 1   
    27    16    17 1   
    28    17    26 1   
    29    17    39 1   
    30    17    40 1   
    31    18    19 ar  
    32    18    41 1   
    33    19    20 ar  
    34    19    42 1   
    35    20    21 ar  
    36    20    43 1   
    37    21    44 1   
    38    22    23 ar  
    39    22    24 ar  
    40    22    53 1   
    41    23    25 ar  
    42    23    54 1   
    43    24    26 ar  
    44    24    45 1   
    45    25    27 ar  
    46    25    46 1   
    47    26    27 ar  
    48    27    47 1   
    49    28    29 1   
    50    28    51 1   
    51    28    52 1   
    52    28    54 1   
    53    29    30 1   
    54    29    31 1   
    55    48    53 1   
    56    49    53 1   
    57    50    53 1   
@<TRIPOS>SUBSTRUCTURE
     1 3OZ         1 TEMP              0 ****  ****    0 ROOT
