@<TRIPOS>MOLECULE
3P0
   85    90     1     0     0
SMALL
abcg2


@<TRIPOS>ATOM
      1 C1           2.6980     0.9090     0.6410 cc         1 3P0       0.024800
      2 C2           1.5400     0.8250    -0.0720 cd         1 3P0      -0.138000
      3 C3           0.7590     1.9740    -0.3440 cd         1 3P0      -0.127200
      4 C4           1.2250     3.1690     0.0980 cc         1 3P0      -0.028400
      5 C5           3.1620     2.1880     1.1500 c          1 3P0       0.536200
      6 N6           2.3820     3.2740     0.8010 n          1 3P0      -0.268000
      7 N7           3.4320    -0.2190     0.9910 nu         1 3P0      -0.808900
      8 C8          -0.4910     1.8960    -1.1370 ca         1 3P0      -0.011800
      9 C9          -0.4760     2.3280    -2.4600 ca         1 3P0      -0.100000
     10 C10         -1.6250     2.2770    -3.2350 ca         1 3P0      -0.100000
     11 C11         -2.8000     1.7940    -2.6860 ca         1 3P0      -0.098000
     12 C12         -2.8240     1.3650    -1.3650 ca         1 3P0      -0.028000
     13 C13         -1.6730     1.3960    -0.5760 ca         1 3P0      -0.058300
     14 N14         -4.0620     0.9280    -0.8200 n          1 3P0      -0.252400
     15 C15         -4.8900     1.8850    -0.0900 c6         1 3P0       0.121000
     16 C16         -6.3440     1.6870    -0.4570 c6         1 3P0      -0.060100
     17 C17         -4.4250    -0.3660    -0.9900 c          1 3P0       0.585600
     18 C18         -5.7650    -0.7280    -0.4480 ca         1 3P0      -0.191600
     19 C19         -6.7310     0.2600    -0.2180 ca         1 3P0      -0.020300
     20 C20         -7.9990    -0.0870     0.2120 ca         1 3P0      -0.130000
     21 C21         -8.3460    -1.4180     0.4330 ca         1 3P0      -0.024300
     22 C22         -7.3920    -2.4030     0.2270 ca         1 3P0      -0.166000
     23 C23         -6.1290    -2.0460    -0.2050 ca         1 3P0       0.236000
     24 O24         -3.7090    -1.1690    -1.5670 o          1 3P0      -0.527000
     25 C25         -1.7260     0.9970     0.8710 c3         1 3P0       0.205900
     26 O26         -2.0050     2.1610     1.6220 oh         1 3P0      -0.663000
     27 C27          2.8230     4.5800     1.2730 c3         1 3P0       0.077300
     28 O28          4.1670     2.3350     1.8370 o          1 3P0      -0.537000
     29 C29          4.7650    -0.4180     0.7030 ca         1 3P0       0.602900
     30 C30          5.4870     0.4250    -0.1530 ca         1 3P0      -0.174000
     31 C31          6.8150     0.1500    -0.3800 ca         1 3P0      -0.069000
     32 C32          7.4250    -0.9680     0.2070 ca         1 3P0       0.180000
     33 C33          6.6030    -1.7540     1.0070 ca         1 3P0       0.330900
     34 N34          5.3240    -1.4800     1.2600 nb         1 3P0      -0.722000
     35 N35          8.7850    -1.2280    -0.0060 nh         1 3P0      -0.769400
     36 C36          9.1850    -1.3870    -1.3980 c6         1 3P0       0.189300
     37 C37         10.6950    -1.3420    -1.5220 c6         1 3P0       0.159800
     38 N38         11.3070    -2.3590    -0.6930 n3         1 3P0      -0.715600
     39 C39         10.9150    -2.1740     0.6880 c6         1 3P0       0.159800
     40 C40          9.4050    -2.2300     0.8360 c6         1 3P0       0.189300
     41 C41         -9.7340    -1.7640     0.9620 c3         1 3P0       0.063400
     42 C42        -10.7240    -1.0040     0.1880 c1         1 3P0       0.301900
     43 C43        -10.0910    -3.2490     0.8270 c3         1 3P0      -0.084600
     44 C44         -9.8380    -1.3380     2.4380 c3         1 3P0      -0.084600
     45 N45        -11.5180    -0.4220    -0.4070 n1         1 3P0      -0.455000
     46 C46         12.7440    -2.3780    -0.8420 c3         1 3P0       0.152100
     47 F47         -5.2450    -3.0320    -0.3660 f          1 3P0      -0.149000
     48 H1           1.2100    -0.1410    -0.4370 ha         1 3P0       0.197000
     49 H2           0.6940     4.0930    -0.0800 h4         1 3P0       0.207000
     50 H3           2.9220    -1.0420     1.2720 hn         1 3P0       0.505000
     51 H4           0.4460     2.7050    -2.8830 ha         1 3P0       0.119000
     52 H5          -1.6040     2.6150    -4.2620 ha         1 3P0       0.120000
     53 H6          -3.7070     1.7580    -3.2750 ha         1 3P0       0.124000
     54 H7          -4.7480     1.7700     0.9880 h1         1 3P0       0.058200
     55 H8          -4.5620     2.8870    -0.3580 h1         1 3P0       0.058200
     56 H9          -6.9680     2.3570     0.1340 hc         1 3P0       0.068700
     57 H10         -6.5000     1.9450    -1.5090 hc         1 3P0       0.068700
     58 H11         -8.7240     0.7020     0.3780 ha         1 3P0       0.126000
     59 H12         -7.6030    -3.4500     0.3940 ha         1 3P0       0.139000
     60 H13         -2.4880     0.2270     1.0230 h1         1 3P0       0.035200
     61 H14         -0.7710     0.5510     1.1710 h1         1 3P0       0.035200
     62 H15         -2.0960     1.8990     2.5440 ho         1 3P0       0.442000
     63 H16          3.8180     4.8040     0.8960 h1         1 3P0       0.055033
     64 H17          2.1310     5.3350     0.9140 h1         1 3P0       0.055033
     65 H18          2.8440     4.6090     2.3610 h1         1 3P0       0.055033
     66 H19          5.0200     1.2660    -0.6460 ha         1 3P0       0.124000
     67 H20          7.3870     0.8090    -1.0210 ha         1 3P0       0.118000
     68 H21          6.9820    -2.6510     1.4810 h4         1 3P0       0.016100
     69 H22          8.8110    -2.3370    -1.8080 h1         1 3P0       0.042450
     70 H23          8.7630    -0.5840    -2.0010 h1         1 3P0       0.042450
     71 H24         10.9690    -1.5180    -2.5660 h1         1 3P0       0.038950
     72 H25         11.0500    -0.3310    -1.2570 h1         1 3P0       0.038950
     73 H27         11.3560    -2.9670     1.2970 h1         1 3P0       0.038950
     74 H28         11.2800    -1.2120     1.0910 h1         1 3P0       0.038950
     75 H29          9.1490    -2.0340     1.8790 h1         1 3P0       0.042450
     76 H30          9.0560    -3.2470     0.5970 h1         1 3P0       0.042450
     77 H31         -9.4360    -3.8510     1.4550 hc         1 3P0       0.050367
     78 H32        -11.1130    -3.4170     1.1610 hc         1 3P0       0.050367
     79 H33        -10.0040    -3.5950    -0.2030 hc         1 3P0       0.050367
     80 H34         -9.6330    -0.2770     2.5680 hc         1 3P0       0.050367
     81 H35        -10.8330    -1.5520     2.8290 hc         1 3P0       0.050367
     82 H36         -9.1100    -1.9030     3.0200 hc         1 3P0       0.050367
     83 H37         13.2250    -1.4330    -0.5430 h1         1 3P0       0.030700
     84 H38         13.1720    -3.1770    -0.2340 h1         1 3P0       0.030700
     85 H39         13.0090    -2.5700    -1.8830 h1         1 3P0       0.030700
@<TRIPOS>BOND
     1     1     2 2   
     2     1     5 1   
     3     1     7 1   
     4     2     3 1   
     5     2    48 1   
     6     3     4 2   
     7     3     8 1   
     8     4     6 1   
     9     4    49 1   
    10     5     6 1   
    11     5    28 2   
    12     6    27 1   
    13     7    29 1   
    14     7    50 1   
    15     8     9 ar  
    16     8    13 ar  
    17     9    10 ar  
    18     9    51 1   
    19    10    11 ar  
    20    10    52 1   
    21    11    12 ar  
    22    11    53 1   
    23    12    13 ar  
    24    12    14 1   
    25    13    25 1   
    26    14    15 1   
    27    14    17 1   
    28    15    16 1   
    29    15    54 1   
    30    15    55 1   
    31    16    19 1   
    32    16    56 1   
    33    16    57 1   
    34    17    18 1   
    35    17    24 2   
    36    18    19 ar  
    37    18    23 ar  
    38    19    20 ar  
    39    20    21 ar  
    40    20    58 1   
    41    21    22 ar  
    42    21    41 1   
    43    22    23 ar  
    44    22    59 1   
    45    23    47 1   
    46    25    26 1   
    47    25    60 1   
    48    25    61 1   
    49    26    62 1   
    50    27    63 1   
    51    27    64 1   
    52    27    65 1   
    53    29    30 ar  
    54    29    34 ar  
    55    30    31 ar  
    56    30    66 1   
    57    31    32 ar  
    58    31    67 1   
    59    32    33 ar  
    60    32    35 1   
    61    33    34 ar  
    62    33    68 1   
    63    35    36 1   
    64    35    40 1   
    65    36    37 1   
    66    36    69 1   
    67    36    70 1   
    68    37    38 1   
    69    37    71 1   
    70    37    72 1   
    71    38    39 1   
    72    38    46 1   
    73    39    40 1   
    74    39    73 1   
    75    39    74 1   
    76    40    75 1   
    77    40    76 1   
    78    41    42 1   
    79    41    43 1   
    80    41    44 1   
    81    42    45 3   
    82    43    77 1   
    83    43    78 1   
    84    43    79 1   
    85    44    80 1   
    86    44    81 1   
    87    44    82 1   
    88    46    83 1   
    89    46    84 1   
    90    46    85 1   
@<TRIPOS>SUBSTRUCTURE
     1 3P0         1 TEMP              0 ****  ****    0 ROOT
