@<TRIPOS>MOLECULE
3P0
   85    90     1     0     0
SMALL
No Charge or Current Charge


@<TRIPOS>ATOM
      1 C1           2.8000     1.7500     0.4600 cc         1 3P0       0.024800
      2 C2           1.5020     1.5980     0.0170 cd         1 3P0      -0.138000
      3 C3           0.7190     2.7370    -0.4050 cd         1 3P0      -0.127200
      4 C4           1.3730     3.9530    -0.4800 cc         1 3P0      -0.028400
      5 C5           3.4610     3.1080     0.4930 c          1 3P0       0.536200
      6 N6           2.6760     4.1600    -0.0250 n          1 3P0      -0.268000
      7 N7           3.5240     0.6260     0.8740 nu         1 3P0      -0.808900
      8 C8          -0.6330     2.5870    -0.9910 ca         1 3P0      -0.011800
      9 C9          -0.8480     3.1670    -2.2590 ca         1 3P0      -0.100000
     10 C10         -2.0590     2.9930    -2.9350 ca         1 3P0      -0.100000
     11 C11         -3.0950     2.2780    -2.3290 ca         1 3P0      -0.098000
     12 C12         -2.9640     1.7950    -1.0140 ca         1 3P0      -0.028000
     13 C13         -1.7030     1.8880    -0.3500 ca         1 3P0      -0.058300
     14 N14         -4.0650     1.0220    -0.4950 n          1 3P0      -0.252400
     15 C15         -4.6960     1.4650     0.7650 c6         1 3P0       0.121000
     16 C16         -6.2230     1.3900     0.6510 c6         1 3P0      -0.060100
     17 C17         -4.4700    -0.2070    -1.0700 c          1 3P0       0.585600
     18 C18         -5.7930    -0.7830    -0.5960 ca         1 3P0      -0.191600
     19 C19         -6.6470    -0.0100     0.2220 ca         1 3P0      -0.020300
     20 C20         -7.8900    -0.5170     0.6400 ca         1 3P0      -0.130000
     21 C21         -8.3230    -1.8090     0.2680 ca         1 3P0      -0.024300
     22 C22         -7.4590    -2.5780    -0.5450 ca         1 3P0      -0.166000
     23 C23         -6.2200    -2.0750    -0.9720 ca         1 3P0       0.236000
     24 O24         -3.8070    -0.7320    -1.9560 o          1 3P0      -0.527000
     25 C25         -1.5440     1.3200     1.0720 c3         1 3P0       0.205900
     26 O26         -1.8750     2.3110     2.0550 oh         1 3P0      -0.663000
     27 C27          3.2780     5.5140    -0.0700 c3         1 3P0       0.077300
     28 O28          4.5930     3.3090     0.9270 o          1 3P0      -0.537000
     29 C29          4.7930     0.1720     0.6200 ca         1 3P0       0.602900
     30 C30          5.6400     0.6960    -0.3690 ca         1 3P0      -0.174000
     31 C31          6.9060     0.1150    -0.5600 ca         1 3P0      -0.069000
     32 C32          7.2790    -0.9860     0.2370 ca         1 3P0       0.180000
     33 C33          6.3230    -1.4380     1.1960 ca         1 3P0       0.330900
     34 N34          5.0980    -0.8800     1.3810 nb         1 3P0      -0.722000
     35 N35          8.5600    -1.5940     0.0670 nh         1 3P0      -0.769400
     36 C36          9.0380    -1.9910    -1.2990 c6         1 3P0       0.189300
     37 C37         10.5920    -2.1440    -1.3750 c6         1 3P0       0.159800
     38 N38         11.1360    -3.0590    -0.3260 n3         1 3P0      -0.715600
     39 C39         10.7060    -2.5870     1.0250 c6         1 3P0       0.159800
     40 C40          9.1550    -2.4420     1.1530 c6         1 3P0       0.189300
     41 C41         -9.7010    -2.3300     0.7600 c3         1 3P0       0.063400
     42 C42        -10.7460    -1.4160     0.2490 c1         1 3P0       0.301900
     43 C43        -10.0340    -3.7660     0.2630 c3         1 3P0      -0.084600
     44 C44         -9.7320    -2.3340     2.3140 c3         1 3P0      -0.084600
     45 N45        -11.5880    -0.7060    -0.1330 n1         1 3P0      -0.455000
     46 C46         12.6000    -3.2380    -0.4280 c3         1 3P0       0.152100
     47 F47         -5.4480    -2.8760    -1.7400 f          1 3P0      -0.149000
     48 H1           1.0810     0.6000    -0.0480 ha         1 3P0       0.197000
     49 H2           0.9180     4.8630    -0.8570 h4         1 3P0       0.207000
     50 H3           3.0020    -0.0670     1.4060 hn         1 3P0       0.505000
     51 H4          -0.0450     3.7020    -2.7600 ha         1 3P0       0.119000
     52 H5          -2.1900     3.4000    -3.9350 ha         1 3P0       0.120000
     53 H6          -4.0300     2.1360    -2.8680 ha         1 3P0       0.124000
     54 H7          -4.3610     0.8190     1.5890 h1         1 3P0       0.058200
     55 H8          -4.3940     2.4970     0.9940 h1         1 3P0       0.058200
     56 H9          -6.6760     1.6580     1.6150 hc         1 3P0       0.068700
     57 H10         -6.5780     2.1250    -0.0840 hc         1 3P0       0.068700
     58 H11         -8.5260     0.1110     1.2600 ha         1 3P0       0.126000
     59 H12         -7.7240    -3.5810    -0.8660 ha         1 3P0       0.139000
     60 H13         -2.1840     0.4360     1.1900 h1         1 3P0       0.035200
     61 H14         -0.5300     0.9580     1.2500 h1         1 3P0       0.035200
     62 H15         -1.6620     1.9240     2.9320 ho         1 3P0       0.442000
     63 H16          4.1970     5.4910    -0.6690 h1         1 3P0       0.055033
     64 H17          2.5840     6.2360    -0.5180 h1         1 3P0       0.055033
     65 H18          3.5210     5.8430     0.9480 h1         1 3P0       0.055033
     66 H19          5.3220     1.5330    -0.9800 ha         1 3P0       0.124000
     67 H20          7.5840     0.5210    -1.3050 ha         1 3P0       0.118000
     68 H21          6.5420    -2.2920     1.8360 h4         1 3P0       0.016100
     69 H22          8.5780    -2.9490    -1.5830 h1         1 3P0       0.042450
     70 H23          8.7320    -1.2530    -2.0530 h1         1 3P0       0.042450
     71 H24         10.8570    -2.5150    -2.3760 h1         1 3P0       0.038950
     72 H25         11.0440    -1.1460    -1.2740 h1         1 3P0       0.038950
     73 H27         11.0560    -3.2840     1.8010 h1         1 3P0       0.038950
     74 H28         11.1640    -1.6110     1.2450 h1         1 3P0       0.038950
     75 H29          8.9330    -2.0080     2.1380 h1         1 3P0       0.042450
     76 H30          8.7040    -3.4450     1.1270 h1         1 3P0       0.042450
     77 H31         -9.2970    -4.4900     0.6300 hc         1 3P0       0.050367
     78 H32        -11.0190    -4.0890     0.6250 hc         1 3P0       0.050367
     79 H33        -10.0540    -3.8150    -0.8330 hc         1 3P0       0.050367
     80 H34         -9.5970    -1.3290     2.7290 hc         1 3P0       0.050367
     81 H35        -10.6880    -2.7210     2.6890 hc         1 3P0       0.050367
     82 H36         -8.9320    -2.9710     2.7120 hc         1 3P0       0.050367
     83 H37         13.1240    -2.2840    -0.2780 h1         1 3P0       0.030700
     84 H38         12.9570    -3.9500     0.3270 h1         1 3P0       0.030700
     85 H39         12.8740    -3.6290    -1.4180 h1         1 3P0       0.030700
@<TRIPOS>BOND
     1     1     2 2   
     2     1     5 1   
     3     1     7 1   
     4     2     3 1   
     5     2    48 1   
     6     3     4 2   
     7     3     8 1   
     8     4     6 1   
     9     4    49 1   
    10     5     6 1   
    11     5    28 2   
    12     6    27 1   
    13     7    29 1   
    14     7    50 1   
    15     8     9 ar  
    16     8    13 ar  
    17     9    10 ar  
    18     9    51 1   
    19    10    11 ar  
    20    10    52 1   
    21    11    12 ar  
    22    11    53 1   
    23    12    13 ar  
    24    12    14 1   
    25    13    25 1   
    26    14    15 1   
    27    14    17 1   
    28    15    16 1   
    29    15    54 1   
    30    15    55 1   
    31    16    19 1   
    32    16    56 1   
    33    16    57 1   
    34    17    18 1   
    35    17    24 2   
    36    18    19 ar  
    37    18    23 ar  
    38    19    20 ar  
    39    20    21 ar  
    40    20    58 1   
    41    21    22 ar  
    42    21    41 1   
    43    22    23 ar  
    44    22    59 1   
    45    23    47 1   
    46    25    26 1   
    47    25    60 1   
    48    25    61 1   
    49    26    62 1   
    50    27    63 1   
    51    27    64 1   
    52    27    65 1   
    53    29    30 ar  
    54    29    34 ar  
    55    30    31 ar  
    56    30    66 1   
    57    31    32 ar  
    58    31    67 1   
    59    32    33 ar  
    60    32    35 1   
    61    33    34 ar  
    62    33    68 1   
    63    35    36 1   
    64    35    40 1   
    65    36    37 1   
    66    36    69 1   
    67    36    70 1   
    68    37    38 1   
    69    37    71 1   
    70    37    72 1   
    71    38    39 1   
    72    38    46 1   
    73    39    40 1   
    74    39    73 1   
    75    39    74 1   
    76    40    75 1   
    77    40    76 1   
    78    41    42 1   
    79    41    43 1   
    80    41    44 1   
    81    42    45 3   
    82    43    77 1   
    83    43    78 1   
    84    43    79 1   
    85    44    80 1   
    86    44    81 1   
    87    44    82 1   
    88    46    83 1   
    89    46    84 1   
    90    46    85 1   
@<TRIPOS>SUBSTRUCTURE
     1 3P0         1 TEMP              0 ****  ****    0 ROOT
