@<TRIPOS>MOLECULE
3P1
   52    56     1     0     0
SMALL
No Charge or Current Charge


@<TRIPOS>ATOM
      1 N1          -3.4190     2.9560    -1.5650 nb         1 3P1      -0.282000
      2 C2          -3.9510     1.7260    -1.3680 ca         1 3P1       0.163900
      3 N3          -3.4210     0.7220    -0.6280 nb         1 3P1      -0.233000
      4 C4          -2.2420     3.1940    -0.9630 ca         1 3P1       0.418900
      5 N5          -1.4280     0.2470     0.7830 na         1 3P1      -0.323300
      6 C6          -0.3280     1.0480     1.0730 cc         1 3P1       0.672700
      7 N7          -0.4050     2.2630     0.5290 nd         1 3P1      -0.641100
      8 C8          -1.6160     2.2060    -0.1700 ca         1 3P1      -0.054600
      9 C9          -2.2430     0.9900    -0.0310 ca         1 3P1       0.131500
     10 C10         -1.6720    -1.0990     1.3060 c5         1 3P1       0.311300
     11 O11         -1.4060    -2.0540     0.2540 os         1 3P1      -0.437000
     12 C12         -2.3380    -3.1460     0.4010 c5         1 3P1       0.172300
     13 C13         -3.6590    -2.4040     0.7610 c5         1 3P1       0.088300
     14 C14         -3.1250    -1.4130     1.8380 c5         1 3P1       0.111300
     15 N15         -1.7060     4.4310    -1.1590 nv         1 3P1      -1.050900
     16 N16          0.7370     0.6490     1.8210 nu         1 3P1      -0.889400
     17 C17          1.9930     1.4240     2.0010 c3         1 3P1       0.178500
     18 C18          2.9870     1.2340     0.8440 ca         1 3P1       0.320300
     19 N19          3.7800     0.1320     0.8880 nb         1 3P1      -0.665000
     20 C20          3.9590     1.9540    -1.2580 ca         1 3P1      -0.065000
     21 C21          3.0480     2.1620    -0.2120 ca         1 3P1      -0.146000
     22 C22          4.7810     0.8160    -1.2110 ca         1 3P1      -0.076000
     23 C23          4.6640    -0.0800    -0.1160 ca         1 3P1       0.268000
     24 C24          5.4950    -1.2160    -0.0870 ca         1 3P1      -0.080000
     25 C25          6.4220    -1.4620    -1.1160 ca         1 3P1      -0.105000
     26 C26          6.5290    -0.5690    -2.1940 ca         1 3P1      -0.105000
     27 C27          5.7090     0.5700    -2.2420 ca         1 3P1      -0.092000
     28 C28         -2.3950    -4.0000    -0.8980 c3         1 3P1       0.164600
     29 O29         -1.1940    -4.7750    -1.0750 oh         1 3P1      -0.707000
     30 O30         -4.6830    -3.2570     1.3200 oh         1 3P1      -0.714000
     31 O31         -3.1340    -2.0940     3.1010 oh         1 3P1      -0.719000
     32 H2          -4.9040     1.5220    -1.8540 h5         1 3P1       0.042100
     33 H10         -0.9650    -1.2530     2.1300 h2         1 3P1       0.087700
     34 H12         -2.0100    -3.7880     1.2310 h1         1 3P1       0.078700
     35 H13         -4.0380    -1.8540    -0.1140 h1         1 3P1       0.088700
     36 H14         -3.7430    -0.5050     1.8870 h1         1 3P1       0.079700
     37 HN15        -2.3150     5.1740    -1.4890 hn         1 3P1       0.493000
     38 HN1A        -0.9320     4.7020    -0.5560 hn         1 3P1       0.493000
     39 HN16         0.8230    -0.3620     1.8780 hn         1 3P1       0.499000
     40 H17          1.7720     2.4960     2.1050 h1         1 3P1       0.081700
     41 H17A         2.4870     1.1200     2.9340 h1         1 3P1       0.081700
     42 H20          4.0210     2.6600    -2.0840 ha         1 3P1       0.121000
     43 H21          2.3900     3.0270    -0.2180 ha         1 3P1       0.145000
     44 H24          5.4190    -1.9120     0.7440 ha         1 3P1       0.130000
     45 H25          7.0560    -2.3450    -1.0770 ha         1 3P1       0.116000
     46 H26          7.2450    -0.7580    -2.9900 ha         1 3P1       0.115000
     47 H27          5.7950     1.2600    -3.0800 ha         1 3P1       0.116000
     48 H28         -3.2640    -4.6690    -0.8360 h1         1 3P1       0.032700
     49 H28A        -2.5540    -3.3300    -1.7550 h1         1 3P1       0.032700
     50 HO29        -1.2740    -5.2380    -1.9430 ho         1 3P1       0.504000
     51 HO30        -5.2500    -3.5790     0.5770 ho         1 3P1       0.517000
     52 HO31        -3.8240    -2.7940     2.9490 ho         1 3P1       0.528000
@<TRIPOS>BOND
     1     1     2 ar  
     2     1     4 ar  
     3     2     3 ar  
     4     2    32 1   
     5     3     9 ar  
     6     4     8 ar  
     7     4    15 1   
     8     5     6 1   
     9     5     9 1   
    10     5    10 1   
    11     6     7 2   
    12     6    16 1   
    13     7     8 1   
    14     8     9 ar  
    15    10    11 1   
    16    10    14 1   
    17    10    33 1   
    18    11    12 1   
    19    12    13 1   
    20    12    28 1   
    21    12    34 1   
    22    13    14 1   
    23    13    30 1   
    24    13    35 1   
    25    14    31 1   
    26    14    36 1   
    27    15    37 1   
    28    15    38 1   
    29    16    17 1   
    30    16    39 1   
    31    17    18 1   
    32    17    40 1   
    33    17    41 1   
    34    18    19 ar  
    35    18    21 ar  
    36    19    23 ar  
    37    20    21 ar  
    38    20    22 ar  
    39    20    42 1   
    40    21    43 1   
    41    22    23 ar  
    42    22    27 ar  
    43    23    24 ar  
    44    24    25 ar  
    45    24    44 1   
    46    25    26 ar  
    47    25    45 1   
    48    26    27 ar  
    49    26    46 1   
    50    27    47 1   
    51    28    29 1   
    52    28    48 1   
    53    28    49 1   
    54    29    50 1   
    55    30    51 1   
    56    31    52 1   
@<TRIPOS>SUBSTRUCTURE
     1 3P1         1 TEMP              0 ****  ****    0 ROOT
