@<TRIPOS>MOLECULE
3P1
   52    56     1     0     0
SMALL
abcg2


@<TRIPOS>ATOM
      1 N1          -3.6320     2.7510    -1.3040 nb         1 3P1      -0.282000
      2 C2          -4.1040     1.5380    -1.0510 ca         1 3P1       0.163900
      3 N3          -3.5120     0.5550    -0.3880 nb         1 3P1      -0.233000
      4 C4          -2.4110     3.0780    -0.8620 ca         1 3P1       0.418900
      5 N5          -1.4160     0.1450     0.7770 na         1 3P1      -0.323300
      6 C6          -0.3000     0.9460     0.9470 cc         1 3P1       0.672700
      7 N7          -0.4340     2.1330     0.4160 nd         1 3P1      -0.641100
      8 C8          -1.6860     2.1180    -0.1470 ca         1 3P1      -0.054600
      9 C9          -2.3080     0.8980     0.0450 ca         1 3P1       0.131500
     10 C10         -1.5830    -1.2200     1.2060 c5         1 3P1       0.311300
     11 O11         -1.4750    -2.0700     0.0930 os         1 3P1      -0.437000
     12 C12         -2.5130    -3.0370     0.0940 c5         1 3P1       0.172300
     13 C13         -3.6600    -2.3860     0.8600 c5         1 3P1       0.088300
     14 C14         -2.9210    -1.5320     1.9010 c5         1 3P1       0.111300
     15 N15         -1.9150     4.2960    -1.1470 nv         1 3P1      -1.050900
     16 N16          0.7810     0.5290     1.6370 nu         1 3P1      -0.889400
     17 C17          1.9700     1.3450     1.7610 c3         1 3P1       0.178500
     18 C18          2.9880     1.0620     0.6830 ca         1 3P1       0.320300
     19 N19          4.1030     0.4920     1.0540 nb         1 3P1      -0.665000
     20 C20          3.6270     1.0970    -1.6270 ca         1 3P1      -0.065000
     21 C21          2.7040     1.3910    -0.6670 ca         1 3P1      -0.146000
     22 C22          4.8410     0.4750    -1.2580 ca         1 3P1      -0.076000
     23 C23          5.0350     0.1920     0.1160 ca         1 3P1       0.268000
     24 C24          6.2370    -0.4260     0.5250 ca         1 3P1      -0.080000
     25 C25          7.1960    -0.7500    -0.3970 ca         1 3P1      -0.105000
     26 C26          7.0010    -0.4700    -1.7660 ca         1 3P1      -0.105000
     27 C27          5.8460     0.1320    -2.1880 ca         1 3P1      -0.092000
     28 C28         -2.8860    -3.3900    -1.3240 c3         1 3P1       0.164600
     29 O29         -1.8070    -4.0480    -1.9420 oh         1 3P1      -0.707000
     30 O30         -4.4780    -3.3690     1.4380 oh         1 3P1      -0.714000
     31 O31         -2.6340    -2.2880     3.0490 oh         1 3P1      -0.719000
     32 H2          -5.0970     1.3270    -1.4340 h5         1 3P1       0.042100
     33 H10         -0.7870    -1.4230     1.9290 h2         1 3P1       0.087700
     34 H12         -2.1890    -3.9440     0.6260 h1         1 3P1       0.078700
     35 H13         -4.2220    -1.7240     0.1950 h1         1 3P1       0.088700
     36 H14         -3.4690    -0.6180     2.1580 h1         1 3P1       0.079700
     37 HN15        -2.5490     5.0050    -1.4770 hn         1 3P1       0.493000
     38 HN1A        -1.1030     4.6210    -0.6510 hn         1 3P1       0.493000
     39 HN16         0.9150    -0.4600     1.7720 hn         1 3P1       0.499000
     40 H17          1.6700     2.3930     1.7420 h1         1 3P1       0.081700
     41 H17A         2.4240     1.1450     2.7310 h1         1 3P1       0.081700
     42 H20          3.4420     1.3380    -2.6660 ha         1 3P1       0.121000
     43 H21          1.7700     1.8750    -0.9190 ha         1 3P1       0.145000
     44 H24          6.3800    -0.6370     1.5770 ha         1 3P1       0.130000
     45 H25          8.1140    -1.2250    -0.0770 ha         1 3P1       0.116000
     46 H26          7.7690    -0.7330    -2.4800 ha         1 3P1       0.115000
     47 H27          5.6900     0.3500    -3.2370 ha         1 3P1       0.116000
     48 H28         -3.7820    -4.0240    -1.2810 h1         1 3P1       0.032700
     49 H28A        -3.1670    -2.4690    -1.8530 h1         1 3P1       0.032700
     50 HO29        -2.0810    -4.3090    -2.8260 ho         1 3P1       0.504000
     51 HO30        -5.3620    -3.0080     1.5580 ho         1 3P1       0.517000
     52 HO31        -3.3450    -2.9360     3.1480 ho         1 3P1       0.528000
@<TRIPOS>BOND
     1     1     2 ar  
     2     1     4 ar  
     3     2     3 ar  
     4     2    32 1   
     5     3     9 ar  
     6     4     8 ar  
     7     4    15 1   
     8     5     6 1   
     9     5     9 1   
    10     5    10 1   
    11     6     7 2   
    12     6    16 1   
    13     7     8 1   
    14     8     9 ar  
    15    10    11 1   
    16    10    14 1   
    17    10    33 1   
    18    11    12 1   
    19    12    13 1   
    20    12    28 1   
    21    12    34 1   
    22    13    14 1   
    23    13    30 1   
    24    13    35 1   
    25    14    31 1   
    26    14    36 1   
    27    15    37 1   
    28    15    38 1   
    29    16    17 1   
    30    16    39 1   
    31    17    18 1   
    32    17    40 1   
    33    17    41 1   
    34    18    19 ar  
    35    18    21 ar  
    36    19    23 ar  
    37    20    21 ar  
    38    20    22 ar  
    39    20    42 1   
    40    21    43 1   
    41    22    23 ar  
    42    22    27 ar  
    43    23    24 ar  
    44    24    25 ar  
    45    24    44 1   
    46    25    26 ar  
    47    25    45 1   
    48    26    27 ar  
    49    26    46 1   
    50    27    47 1   
    51    28    29 1   
    52    28    48 1   
    53    28    49 1   
    54    29    50 1   
    55    30    51 1   
    56    31    52 1   
@<TRIPOS>SUBSTRUCTURE
     1 3P1         1 TEMP              0 ****  ****    0 ROOT
