@<TRIPOS>MOLECULE
3P2
   50    53     1     0     0
SMALL
No Charge or Current Charge


@<TRIPOS>ATOM
      1 O1           5.9730     1.6880    -0.0780 os         1 3P2      -0.072700
      2 C2           4.6110     1.8000     0.0470 cc         1 3P2       0.200300
      3 C3           4.0560     0.5480     0.1290 cd         1 3P2      -0.179000
      4 C4           5.1780    -0.3270     0.1290 cd         1 3P2       0.294300
      5 C5           5.1970    -1.8210     0.3250 c3         1 3P2      -0.135400
      6 C6           4.0150     3.1790    -0.0300 c3         1 3P2      -0.138400
      7 C8           2.6280     0.2050     0.3440 ca         1 3P2       0.006000
      8 C13          1.7500     1.1020     0.9900 ca         1 3P2      -0.106500
      9 C14         -1.5270    -0.8080     0.9360 cc         1 3P2       0.096400
     10 C16         -3.2690    -1.9750     1.3450 cd         1 3P2      -0.143000
     11 C18         -2.5750     0.0650     0.6890 cd         1 3P2       0.024900
     12 N1           6.3290     0.3030    -0.0080 nc         1 3P2      -0.366300
     13 C9           2.1060    -1.0310    -0.0910 ca         1 3P2      -0.106500
     14 C10          0.7520    -1.3550     0.1020 ca         1 3P2      -0.091500
     15 C11         -0.1240    -0.4430     0.7170 ca         1 3P2      -0.012800
     16 C12          0.3970     0.7780     1.1860 ca         1 3P2      -0.091500
     17 N2          -1.9470    -2.0700     1.3100 nc         1 3P2      -0.260600
     18 N3          -3.6620    -0.7430     0.9390 na         1 3P2       0.152100
     19 C25         -4.2380    -2.9410     1.7330 cd         1 3P2       0.392900
     20 N26         -5.5360    -2.6250     1.7650 nc         1 3P2      -0.650000
     21 C27         -5.8780    -1.3060     1.4520 cc         1 3P2       0.274900
     22 C28         -4.9740    -0.3140     1.0760 cd         1 3P2      -0.138000
     23 N29         -2.5890     1.3720     0.2130 nu         1 3P2      -0.781200
     24 C30         -2.7140     1.7440    -1.2080 c3         1 3P2       0.218200
     25 C31         -4.1060     1.3400    -1.7480 c3         1 3P2      -0.099767
     26 C32         -2.5420     3.2770    -1.2930 c3         1 3P2      -0.099767
     27 C33         -1.5990     1.0430    -2.0220 c3         1 3P2      -0.099767
     28 H1           4.9970    -2.3420    -0.6180 hc         1 3P2       0.058367
     29 H2           6.1720    -2.1630     0.6910 hc         1 3P2       0.058367
     30 H3           4.4470    -2.1330     1.0610 hc         1 3P2       0.058367
     31 H4           4.6810     3.8610    -0.5720 hc         1 3P2       0.063367
     32 H5           3.0550     3.1650    -0.5600 hc         1 3P2       0.063367
     33 H6           3.8560     3.5930     0.9720 hc         1 3P2       0.063367
     34 H7           2.1140     2.0420     1.3900 ha         1 3P2       0.115000
     35 H8           2.7320    -1.7420    -0.6200 ha         1 3P2       0.115000
     36 H9           0.3770    -2.3120    -0.2520 ha         1 3P2       0.119500
     37 H10         -0.2410     1.4740     1.7230 ha         1 3P2       0.119500
     38 H11         -3.9910    -3.9510     2.0360 h4         1 3P2       0.047100
     39 H12         -6.9350    -1.0940     1.5420 h4         1 3P2       0.035100
     40 H13         -5.2160     0.7170     0.8660 h4         1 3P2       0.165000
     41 H14         -1.9510     1.9830     0.7220 hn         1 3P2       0.455000
     42 H15         -4.9060     1.8250    -1.1770 hc         1 3P2       0.041922
     43 H16         -4.2140     1.6430    -2.7960 hc         1 3P2       0.041922
     44 H17         -4.2520     0.2540    -1.7000 hc         1 3P2       0.041922
     45 H18         -1.5590     3.5850    -0.9160 hc         1 3P2       0.041922
     46 H19         -2.6270     3.6200    -2.3310 hc         1 3P2       0.041922
     47 H20         -3.3100     3.7920    -0.7040 hc         1 3P2       0.041922
     48 H21         -1.7010    -0.0480    -1.9800 hc         1 3P2       0.041922
     49 H22         -1.6440     1.3420    -3.0760 hc         1 3P2       0.041922
     50 H23         -0.6060     1.3090    -1.6390 hc         1 3P2       0.041922
@<TRIPOS>BOND
     1     1     2 1   
     2     1    12 1   
     3     2     3 2   
     4     2     6 1   
     5     3     4 1   
     6     3     7 1   
     7     4     5 1   
     8     4    12 2   
     9     5    28 1   
    10     5    29 1   
    11     5    30 1   
    12     6    31 1   
    13     6    32 1   
    14     6    33 1   
    15     7     8 ar  
    16     7    13 ar  
    17     8    16 ar  
    18     8    34 1   
    19     9    11 2   
    20     9    15 1   
    21     9    17 1   
    22    10    17 2   
    23    10    18 1   
    24    10    19 1   
    25    11    18 1   
    26    11    23 1   
    27    13    14 ar  
    28    13    35 1   
    29    14    15 ar  
    30    14    36 1   
    31    15    16 ar  
    32    16    37 1   
    33    18    22 1   
    34    19    20 2   
    35    19    38 1   
    36    20    21 1   
    37    21    22 2   
    38    21    39 1   
    39    22    40 1   
    40    23    24 1   
    41    23    41 1   
    42    24    25 1   
    43    24    26 1   
    44    24    27 1   
    45    25    42 1   
    46    25    43 1   
    47    25    44 1   
    48    26    45 1   
    49    26    46 1   
    50    26    47 1   
    51    27    48 1   
    52    27    49 1   
    53    27    50 1   
@<TRIPOS>SUBSTRUCTURE
     1 3P2         1 TEMP              0 ****  ****    0 ROOT
