@<TRIPOS>MOLECULE
3P2
   50    53     1     0     0
SMALL
abcg2


@<TRIPOS>ATOM
      1 O1           5.9550     1.4720    -0.2770 os         1 3P2      -0.072700
      2 C2           4.6290     1.6050    -0.2470 cc         1 3P2       0.200300
      3 C3           4.0690     0.4240     0.1340 cd         1 3P2      -0.179000
      4 C4           5.1970    -0.4310     0.3270 cd         1 3P2       0.294300
      5 C5           5.2100    -1.8540     0.7560 c3         1 3P2      -0.135400
      6 C6           4.0630     2.9210    -0.6210 c3         1 3P2      -0.138400
      7 C8           2.6520     0.1180     0.3280 ca         1 3P2       0.006000
      8 C13          1.8100     1.0200     0.9780 ca         1 3P2      -0.106500
      9 C14         -1.5100    -0.7520     0.8310 cc         1 3P2       0.096400
     10 C16         -3.2350    -1.9430     1.2030 cd         1 3P2      -0.143000
     11 C18         -2.5890     0.1200     0.7090 cd         1 3P2       0.024900
     12 N1           6.3060     0.2030     0.0860 nc         1 3P2      -0.366300
     13 C9           2.1010    -1.0830    -0.1260 ca         1 3P2      -0.106500
     14 C10          0.7580    -1.3620     0.0510 ca         1 3P2      -0.091500
     15 C11         -0.0870    -0.4450     0.6750 ca         1 3P2      -0.012800
     16 C12          0.4630     0.7470     1.1440 ca         1 3P2      -0.091500
     17 N2          -1.9210    -2.0080     1.1240 nc         1 3P2      -0.260600
     18 N3          -3.6830    -0.6620     0.9730 na         1 3P2       0.152100
     19 C25         -4.2040    -2.9310     1.4770 cd         1 3P2       0.392900
     20 N26         -5.4760    -2.6630     1.5350 nc         1 3P2      -0.650000
     21 C27         -5.8700    -1.3770     1.3250 cc         1 3P2       0.274900
     22 C28         -5.0120    -0.3650     1.0430 cd         1 3P2      -0.138000
     23 N29         -2.7470     1.4610     0.3980 nu         1 3P2      -0.781200
     24 C30         -2.7570     1.8810    -1.0220 c3         1 3P2       0.218200
     25 C31         -3.8620     1.1410    -1.7690 c3         1 3P2      -0.099767
     26 C32         -3.0560     3.3770    -1.0180 c3         1 3P2      -0.099767
     27 C33         -1.4170     1.6270    -1.7170 c3         1 3P2      -0.099767
     28 H1           4.8990    -2.5100    -0.0580 hc         1 3P2       0.058367
     29 H2           6.2080    -2.1560     1.0680 hc         1 3P2       0.058367
     30 H3           4.5190    -2.0140     1.5830 hc         1 3P2       0.058367
     31 H4           4.6130     3.3610    -1.4530 hc         1 3P2       0.063367
     32 H5           3.0210     2.8170    -0.9150 hc         1 3P2       0.063367
     33 H6           4.1050     3.6220     0.2150 hc         1 3P2       0.063367
     34 H7           2.2120     1.9400     1.3850 ha         1 3P2       0.115000
     35 H8           2.7210    -1.8020    -0.6460 ha         1 3P2       0.115000
     36 H9           0.3550    -2.2960    -0.3190 ha         1 3P2       0.119500
     37 H10         -0.1490     1.4620     1.6790 ha         1 3P2       0.119500
     38 H11         -3.8760    -3.9500     1.6470 h4         1 3P2       0.047100
     39 H12         -6.9290    -1.1730     1.3910 h4         1 3P2       0.035100
     40 H13         -5.3070     0.6600     0.8760 h4         1 3P2       0.165000
     41 H14         -2.1400     2.0570     0.9430 hn         1 3P2       0.455000
     42 H15         -4.8430     1.3590    -1.3460 hc         1 3P2       0.041922
     43 H16         -3.8750     1.4530    -2.8140 hc         1 3P2       0.041922
     44 H17         -3.7130     0.0600    -1.7590 hc         1 3P2       0.041922
     45 H18         -2.2920     3.9350    -0.4710 hc         1 3P2       0.041922
     46 H19         -3.0770     3.7640    -2.0380 hc         1 3P2       0.041922
     47 H20         -4.0230     3.5830    -0.5570 hc         1 3P2       0.041922
     48 H21         -1.1700     0.5640    -1.7410 hc         1 3P2       0.041922
     49 H22         -1.4530     1.9800    -2.7490 hc         1 3P2       0.041922
     50 H23         -0.6010     2.1460    -1.2120 hc         1 3P2       0.041922
@<TRIPOS>BOND
     1     1     2 1   
     2     1    12 1   
     3     2     3 2   
     4     2     6 1   
     5     3     4 1   
     6     3     7 1   
     7     4     5 1   
     8     4    12 2   
     9     5    28 1   
    10     5    29 1   
    11     5    30 1   
    12     6    31 1   
    13     6    32 1   
    14     6    33 1   
    15     7     8 ar  
    16     7    13 ar  
    17     8    16 ar  
    18     8    34 1   
    19     9    11 2   
    20     9    15 1   
    21     9    17 1   
    22    10    17 2   
    23    10    18 1   
    24    10    19 1   
    25    11    18 1   
    26    11    23 1   
    27    13    14 ar  
    28    13    35 1   
    29    14    15 ar  
    30    14    36 1   
    31    15    16 ar  
    32    16    37 1   
    33    18    22 1   
    34    19    20 2   
    35    19    38 1   
    36    20    21 1   
    37    21    22 2   
    38    21    39 1   
    39    22    40 1   
    40    23    24 1   
    41    23    41 1   
    42    24    25 1   
    43    24    26 1   
    44    24    27 1   
    45    25    42 1   
    46    25    43 1   
    47    25    44 1   
    48    26    45 1   
    49    26    46 1   
    50    26    47 1   
    51    27    48 1   
    52    27    49 1   
    53    27    50 1   
@<TRIPOS>SUBSTRUCTURE
     1 3P2         1 TEMP              0 ****  ****    0 ROOT
