@<TRIPOS>MOLECULE
3P4
   61    64     1     0     0
SMALL
abcg2


@<TRIPOS>ATOM
      1 C1           1.0490    -0.0500    -0.5670 cc         1 3P4       0.097400
      2 C2           2.0290    -0.9110    -1.0930 cc         1 3P4       0.042400
      3 C3           1.7310     0.9750     0.0630 cd         1 3P4      -0.184600
      4 N1          -0.3010    -0.1540    -0.6300 nc         1 3P4      -0.566100
      5 N2           3.2030    -0.3790    -0.7570 na         1 3P4      -0.009700
      6 C4           1.8450    -2.1940    -1.8130 c3         1 3P4      -0.034100
      7 N3           3.0370     0.7520    -0.0690 na         1 3P4      -0.106000
      8 C5           1.0260     2.0370     0.7470 c          1 3P4       0.597600
      9 C6          -0.9470     0.7740    -0.0140 cd         1 3P4       0.611500
     10 C7           4.5510    -0.8640    -1.0140 cy         1 3P4       0.025300
     11 C8           1.8280    -3.3810    -0.8480 c3         1 3P4      -0.093100
     12 N4          -0.3330     1.8100     0.6540 ns         1 3P4      -0.418400
     13 O1           1.5170     2.9750     1.3320 o          1 3P4      -0.470000
     14 C9          -2.4170     0.7920    -0.0140 ca         1 3P4      -0.280900
     15 C10          5.4230    -0.8050     0.2490 cy         1 3P4       0.123800
     16 C11          5.4690     0.2450    -1.5450 cy         1 3P4       0.123800
     17 C12         -3.1720    -0.3780     0.2050 ca         1 3P4       0.659300
     18 C13         -3.1110     1.9670    -0.2440 ca         1 3P4       0.013000
     19 N5           5.8060     0.5580    -0.1500 nq         1 3P4      -0.748600
     20 N6          -4.4890    -0.3760     0.1870 nb         1 3P4      -0.756000
     21 O2          -2.5240    -1.4980     0.4690 os         1 3P4      -0.454300
     22 C14         -4.5060     1.9740    -0.2800 ca         1 3P4      -0.141800
     23 C15          7.1380     1.0290     0.1590 c3         1 3P4       0.160800
     24 C16         -5.1340     0.7580    -0.0450 ca         1 3P4       0.444900
     25 C17         -3.2670    -2.7010     0.6730 c3         1 3P4       0.172600
     26 C20         -5.2660     3.2060    -0.5490 ce         1 3P4       0.142900
     27 C18          7.3070     1.2730     1.6460 c3         1 3P4      -0.097100
     28 C19         -2.2660    -3.7940     1.0040 c3         1 3P4      -0.048200
     29 O3          -4.5530     4.3090    -0.2360 oh         1 3P4      -0.553100
     30 C21         -2.9710    -5.0840     1.2840 c2         1 3P4      -0.233200
     31 C22         -2.8370    -6.1920     0.5650 c2         1 3P4      -0.294000
     32 C23         -6.5010     3.2280    -1.0560 c2         1 3P4      -0.410000
     33 H4C1         0.8960    -2.1360    -2.3450 hc         1 3P4       0.088700
     34 H4C2         2.6190    -2.3230    -2.5710 hc         1 3P4       0.088700
     35 H3           3.8750     1.2600     0.2400 hn         1 3P4       0.461000
     36 H7           4.4810    -1.7960    -1.5620 h1         1 3P4       0.126700
     37 H8C1         1.0230    -3.2800    -0.1200 hc         1 3P4       0.056033
     38 H8C2         1.6720    -4.3050    -1.4020 hc         1 3P4       0.056033
     39 H8C3         2.7680    -3.4700    -0.3040 hc         1 3P4       0.056033
     40 H4          -0.9210     2.4680     1.1530 hn         1 3P4       0.362500
     41 H101         6.2430    -1.5270     0.1740 h1         1 3P4       0.089450
     42 H102         4.9320    -0.9080     1.2190 h1         1 3P4       0.089450
     43 H111         5.0230     1.0540    -2.1270 h1         1 3P4       0.089450
     44 H112         6.3000    -0.1960    -2.1080 h1         1 3P4       0.089450
     45 H13         -2.5630     2.8820    -0.4310 ha         1 3P4       0.139000
     46 H151         7.3000     1.9580    -0.3920 h1         1 3P4       0.053700
     47 H152         7.8930     0.3100    -0.1950 h1         1 3P4       0.053700
     48 H16         -6.2160     0.6930    -0.0260 h4         1 3P4       0.041100
     49 H171        -3.9870    -2.5710     1.4850 h1         1 3P4       0.062700
     50 H172        -3.8250    -2.9520    -0.2320 h1         1 3P4       0.062700
     51 H181         6.5990     2.0220     2.0020 hc         1 3P4       0.051033
     52 H182         7.1550     0.3610     2.2260 hc         1 3P4       0.051033
     53 H183         8.3150     1.6300     1.8570 hc         1 3P4       0.051033
     54 H191        -1.5590    -3.9170     0.1800 hc         1 3P4       0.052200
     55 H192        -1.6930    -3.4940     1.8870 hc         1 3P4       0.052200
     56 HA          -5.0420     5.1020    -0.4860 ho         1 3P4       0.476000
     57 H21         -3.6410    -5.0860     2.1390 ha         1 3P4       0.177000
     58 H221        -2.1820    -6.2380    -0.2980 ha         1 3P4       0.167000
     59 H222        -3.3750    -7.0970     0.8150 ha         1 3P4       0.167000
     60 H231        -7.0100     2.3170    -1.3330 ha         1 3P4       0.185000
     61 H232        -7.0320     4.1580    -1.2170 ha         1 3P4       0.185000
@<TRIPOS>BOND
     1     1     2 1   
     2     1     3 2   
     3     1     4 1   
     4     2     5 2   
     5     2     6 1   
     6     3     7 1   
     7     3     8 1   
     8     4     9 2   
     9     5     7 1   
    10     5    10 1   
    11     6    11 1   
    12     6    33 1   
    13     6    34 1   
    14     7    35 1   
    15     8    12 1   
    16     8    13 2   
    17     9    12 1   
    18     9    14 1   
    19    10    15 1   
    20    10    16 1   
    21    10    36 1   
    22    11    37 1   
    23    11    38 1   
    24    11    39 1   
    25    12    40 1   
    26    14    17 ar  
    27    14    18 ar  
    28    15    19 1   
    29    15    41 1   
    30    15    42 1   
    31    16    19 1   
    32    16    43 1   
    33    16    44 1   
    34    17    20 ar  
    35    17    21 1   
    36    18    22 ar  
    37    18    45 1   
    38    19    23 1   
    39    20    24 ar  
    40    21    25 1   
    41    22    24 ar  
    42    22    26 1   
    43    23    27 1   
    44    23    46 1   
    45    23    47 1   
    46    24    48 1   
    47    25    28 1   
    48    25    49 1   
    49    25    50 1   
    50    26    29 1   
    51    26    32 2   
    52    27    51 1   
    53    27    52 1   
    54    27    53 1   
    55    28    30 1   
    56    28    54 1   
    57    28    55 1   
    58    29    56 1   
    59    30    31 2   
    60    30    57 1   
    61    31    58 1   
    62    31    59 1   
    63    32    60 1   
    64    32    61 1   
@<TRIPOS>SUBSTRUCTURE
     1 3P4         1 TEMP              0 ****  ****    0 ROOT
