@<TRIPOS>MOLECULE
3P4
   61    64     1     0     0
SMALL
No Charge or Current Charge


@<TRIPOS>ATOM
      1 C1           1.0040     0.1090    -0.5870 cc         1 3P4       0.097400
      2 C2           1.9580    -0.7070    -1.2380 cc         1 3P4       0.042400
      3 C3           1.6390     1.0330     0.1860 cd         1 3P4      -0.184600
      4 N1          -0.3670     0.0220    -0.6740 nc         1 3P4      -0.566100
      5 N2           3.2120    -0.2710    -0.8480 na         1 3P4      -0.009700
      6 C4           1.6490    -1.8650    -2.1560 c3         1 3P4      -0.034100
      7 N3           3.0130     0.8080     0.0220 na         1 3P4      -0.106000
      8 C5           0.9060     2.0150     0.9890 c          1 3P4       0.597600
      9 C6          -1.0350     0.9040     0.0750 cd         1 3P4       0.611500
     10 C7           4.5410    -0.7870    -1.1630 cy         1 3P4       0.025300
     11 C8           1.6750    -3.2230    -1.4280 c3         1 3P4      -0.093100
     12 N4          -0.4380     1.8600     0.8530 ns         1 3P4      -0.418400
     13 O1           1.4160     2.8670     1.6980 o          1 3P4      -0.470000
     14 C9          -2.4900     0.8930     0.0320 ca         1 3P4      -0.280900
     15 C10          5.5370    -1.0980     0.0100 cy         1 3P4       0.123800
     16 C11          5.6660     0.2140    -1.6080 cy         1 3P4       0.123800
     17 C12         -3.2010    -0.2770     0.3330 ca         1 3P4       0.659300
     18 C13         -3.1990     2.0490    -0.3460 ca         1 3P4       0.013000
     19 N5           5.9300     0.3410    -0.1390 nq         1 3P4      -0.748600
     20 N6          -4.5470    -0.3350     0.2860 nb         1 3P4      -0.756000
     21 O2          -2.5070    -1.3870     0.7550 os         1 3P4      -0.454300
     22 C14         -4.6020     1.9950    -0.4090 ca         1 3P4      -0.141800
     23 C15          7.2090     0.8440     0.3730 c3         1 3P4       0.160800
     24 C16         -5.2240     0.7760    -0.0810 ca         1 3P4       0.444900
     25 C17         -3.1660    -2.6450     0.9850 c3         1 3P4       0.172600
     26 C20         -5.4030     3.1910    -0.8020 ce         1 3P4       0.142900
     27 C18          7.2460     0.8310     1.9100 c3         1 3P4      -0.097100
     28 C19         -2.0840    -3.6680     1.3850 c3         1 3P4      -0.048200
     29 O3          -4.8450     4.3920    -0.5380 oh         1 3P4      -0.553100
     30 C21         -2.6560    -5.0490     1.6440 c2         1 3P4      -0.233200
     31 C22         -2.3780    -6.1480     0.9250 c2         1 3P4      -0.294000
     32 C23         -6.6060     3.1110    -1.3950 c2         1 3P4      -0.410000
     33 H4C1         0.6590    -1.7240    -2.6080 hc         1 3P4       0.088700
     34 H4C2         2.3600    -1.8840    -2.9920 hc         1 3P4       0.088700
     35 H3           3.8370     1.2600     0.4210 hn         1 3P4       0.461000
     36 H7           4.4060    -1.6250    -1.8520 h1         1 3P4       0.126700
     37 H8C1         0.9400    -3.2370    -0.6150 hc         1 3P4       0.056033
     38 H8C2         1.4350    -4.0370    -2.1230 hc         1 3P4       0.056033
     39 H8C3         2.6660    -3.4180    -1.0000 hc         1 3P4       0.056033
     40 H4          -1.0110     2.4950     1.3870 hn         1 3P4       0.362500
     41 H101         6.3150    -1.8290    -0.2520 h1         1 3P4       0.089450
     42 H102         5.0630    -1.3810     0.9580 h1         1 3P4       0.089450
     43 H111         5.3090     1.1150    -2.1220 h1         1 3P4       0.089450
     44 H112         6.4700    -0.2550    -2.1930 h1         1 3P4       0.089450
     45 H13         -2.6690     2.9650    -0.6040 ha         1 3P4       0.139000
     46 H151         7.3540     1.8740     0.0190 h1         1 3P4       0.053700
     47 H152         8.0300     0.2300    -0.0210 h1         1 3P4       0.053700
     48 H16         -6.3090     0.6810    -0.0940 h4         1 3P4       0.041100
     49 H171        -3.9080    -2.5590     1.7900 h1         1 3P4       0.062700
     50 H172        -3.6760    -2.9920     0.0760 h1         1 3P4       0.062700
     51 H181         6.4320     1.4390     2.3200 hc         1 3P4       0.051033
     52 H182         7.1480    -0.1900     2.2940 hc         1 3P4       0.051033
     53 H183         8.1970     1.2420     2.2680 hc         1 3P4       0.051033
     54 H191        -1.3310    -3.7110     0.5880 hc         1 3P4       0.052200
     55 H192        -1.5680    -3.3070     2.2830 hc         1 3P4       0.052200
     56 HA          -5.4870     5.0640    -0.8510 ho         1 3P4       0.476000
     57 H21         -3.3380    -5.1050     2.4970 ha         1 3P4       0.177000
     58 H221        -1.6990    -6.1230     0.0710 ha         1 3P4       0.167000
     59 H222        -2.8220    -7.1160     1.1660 ha         1 3P4       0.167000
     60 H231        -7.0720     2.1560    -1.6390 ha         1 3P4       0.185000
     61 H232        -7.1740     3.9980    -1.6770 ha         1 3P4       0.185000
@<TRIPOS>BOND
     1     1     2 1   
     2     1     3 2   
     3     1     4 1   
     4     2     5 2   
     5     2     6 1   
     6     3     7 1   
     7     3     8 1   
     8     4     9 2   
     9     5     7 1   
    10     5    10 1   
    11     6    11 1   
    12     6    33 1   
    13     6    34 1   
    14     7    35 1   
    15     8    12 1   
    16     8    13 2   
    17     9    12 1   
    18     9    14 1   
    19    10    15 1   
    20    10    16 1   
    21    10    36 1   
    22    11    37 1   
    23    11    38 1   
    24    11    39 1   
    25    12    40 1   
    26    14    17 ar  
    27    14    18 ar  
    28    15    19 1   
    29    15    41 1   
    30    15    42 1   
    31    16    19 1   
    32    16    43 1   
    33    16    44 1   
    34    17    20 ar  
    35    17    21 1   
    36    18    22 ar  
    37    18    45 1   
    38    19    23 1   
    39    20    24 ar  
    40    21    25 1   
    41    22    24 ar  
    42    22    26 1   
    43    23    27 1   
    44    23    46 1   
    45    23    47 1   
    46    24    48 1   
    47    25    28 1   
    48    25    49 1   
    49    25    50 1   
    50    26    29 1   
    51    26    32 2   
    52    27    51 1   
    53    27    52 1   
    54    27    53 1   
    55    28    30 1   
    56    28    54 1   
    57    28    55 1   
    58    29    56 1   
    59    30    31 2   
    60    30    57 1   
    61    31    58 1   
    62    31    59 1   
    63    32    60 1   
    64    32    61 1   
@<TRIPOS>SUBSTRUCTURE
     1 3P4         1 TEMP              0 ****  ****    0 ROOT
