@<TRIPOS>MOLECULE
3P7
   45    46     1     0     0
SMALL
No Charge or Current Charge


@<TRIPOS>ATOM
      1 C1          -1.2180     1.7280     2.3640 c          1 3P7       0.598900
      2 O1          -1.2410     1.0740     3.4080 o          1 3P7      -0.518100
      3 C2          -1.2030     1.1010     0.9270 c3         1 3P7       0.251400
      4 N2          -0.0540     0.1830     0.7450 ns         1 3P7      -0.506900
      5 C3          -2.5370     0.2560     0.8090 c6         1 3P7       0.329500
      6 O4          -3.6540     1.1270     1.0270 os         1 3P7      -0.471000
      7 C5          -4.9070     0.4600     0.8750 c6         1 3P7       0.189800
      8 C6          -4.9970    -0.1790    -0.5100 ce         1 3P7      -0.225800
      9 C7          -3.7450    -0.8640    -0.9760 ce         1 3P7       0.422600
     10 C8          -3.7450    -2.0110    -2.0350 c          1 3P7       0.643700
     11 N8          -2.5950    -0.4740    -0.4720 n2         1 3P7      -0.615900
     12 C9          -6.1400    -0.0470    -1.2310 c2         1 3P7      -0.287000
     13 C21          1.2230     0.3410     1.2340 c          1 3P7       0.653100
     14 O21          1.5460     1.3140     1.8990 o          1 3P7      -0.661100
     15 C22          2.1880    -0.7690     0.8420 c3         1 3P7      -0.259400
     16 C23          3.3970    -0.2700     0.0370 ca         1 3P7      -0.020300
     17 C24          3.6110    -0.7580    -1.2700 ca         1 3P7      -0.059500
     18 C25          4.7080    -0.3110    -2.0290 ca         1 3P7      -0.188000
     19 C26          5.5990     0.6270    -1.4910 ca         1 3P7       0.091100
     20 O26          6.6590     1.0560    -2.2300 oh         1 3P7      -0.561100
     21 C27          5.3990     1.1200    -0.1940 ca         1 3P7      -0.188000
     22 C28          4.3030     0.6750     0.5670 ca         1 3P7      -0.059500
     23 C29          2.5580    -1.5630     2.0900 c          1 3P7       0.736000
     24 O30          3.2480    -1.0430     2.9530 o          1 3P7      -0.704000
     25 O31          2.1710    -2.7200     2.1530 o          1 3P7      -0.704000
     26 O61         -1.2460     2.1340    -0.1070 os         1 3P7      -0.452000
     27 C62         -0.0920     2.9860    -0.2510 c3         1 3P7       0.156900
     28 O81         -4.8080    -2.4660    -2.4530 o          1 3P7      -0.707500
     29 O82         -2.6750    -2.4840    -2.4200 o          1 3P7      -0.707500
     30 H1          -0.2180    -0.6330     0.1690 hn         1 3P7       0.364500
     31 H2          -2.5200    -0.4940     1.6170 h2         1 3P7       0.082700
     32 H3          -5.0040    -0.3110     1.6530 h1         1 3P7       0.033700
     33 H4          -5.7130     1.1930     1.0200 h1         1 3P7       0.033700
     34 H6          -7.0080     0.4830    -0.8350 ha         1 3P7       0.155500
     35 H7          -6.2510    -0.4430    -2.2400 ha         1 3P7       0.155500
     36 H9           1.6220    -1.4630     0.2110 hc         1 3P7       0.065700
     37 H10          2.9280    -1.4860    -1.7030 ha         1 3P7       0.127500
     38 H11          4.8620    -0.6940    -3.0340 ha         1 3P7       0.094500
     39 H12          7.1660     1.7030    -1.6940 ho         1 3P7       0.444000
     40 H13          6.0850     1.8480     0.2320 ha         1 3P7       0.094500
     41 H14          4.1610     1.0660     1.5710 ha         1 3P7       0.127500
     42 H16          0.1520     3.4930     0.6910 h1         1 3P7       0.022367
     43 H17          0.7830     2.4130    -0.5820 h1         1 3P7       0.022367
     44 H18         -0.2870     3.7580    -1.0070 h1         1 3P7       0.022367
     45 H20         -1.2230     2.8400     2.4020 h4         1 3P7      -0.022800
@<TRIPOS>BOND
     1     1     2 2   
     2     1     3 1   
     3     1    45 1   
     4     3     4 1   
     5     3     5 1   
     6     3    26 1   
     7     4    13 1   
     8     4    30 1   
     9     5     6 1   
    10     5    11 1   
    11     5    31 1   
    12     6     7 1   
    13     7     8 1   
    14     7    32 1   
    15     7    33 1   
    16     8     9 1   
    17     8    12 2   
    18     9    10 1   
    19     9    11 2   
    20    10    28 1   
    21    10    29 1   
    22    12    34 1   
    23    12    35 1   
    24    13    14 2   
    25    13    15 1   
    26    15    16 1   
    27    15    23 1   
    28    15    36 1   
    29    16    17 ar  
    30    16    22 ar  
    31    17    18 ar  
    32    17    37 1   
    33    18    19 ar  
    34    18    38 1   
    35    19    20 1   
    36    19    21 ar  
    37    20    39 1   
    38    21    22 ar  
    39    21    40 1   
    40    22    41 1   
    41    23    24 1   
    42    23    25 1   
    43    26    27 1   
    44    27    42 1   
    45    27    43 1   
    46    27    44 1   
@<TRIPOS>SUBSTRUCTURE
     1 3P7         1 TEMP              0 ****  ****    0 ROOT
