@<TRIPOS>MOLECULE
3P7
   45    46     1     0     0
SMALL
bcc


@<TRIPOS>ATOM
      1 C1          -0.8350     2.0020     1.7350 c          1 3P7       0.598900
      2 O1          -0.8070     1.5930     2.8650 o          1 3P7      -0.518100
      3 C2          -1.2140     1.1150     0.5340 c3         1 3P7       0.228200
      4 N2          -0.1630     0.1990     0.2230 ns         1 3P7      -0.573900
      5 C3          -2.4490     0.2800     0.9300 c6         1 3P7       0.306300
      6 O4          -3.4690     1.1860     1.2260 os         1 3P7      -0.424600
      7 C5          -4.7060     0.5310     1.4130 c6         1 3P7       0.166600
      8 C6          -5.0730    -0.2050     0.1600 ce         1 3P7      -0.225800
      9 C7          -3.9240    -0.8570    -0.4960 ce         1 3P7       0.422600
     10 C8          -4.1480    -1.8770    -1.6130 c          1 3P7       0.854300
     11 N8          -2.7260    -0.6490    -0.1220 n2         1 3P7      -0.615900
     12 C9          -6.3150    -0.2380    -0.3170 c2         1 3P7      -0.187000
     13 C21          1.1450     0.4570     0.4500 c          1 3P7       0.720100
     14 O21          1.5060     1.5060     0.9580 o          1 3P7      -0.661100
     15 C22          2.0810    -0.6490     0.0170 c3         1 3P7      -0.259400
     16 C23          3.4930    -0.1570    -0.1470 ca         1 3P7      -0.020300
     17 C24          4.0680    -0.0480    -1.4090 ca         1 3P7      -0.077500
     18 C25          5.3680     0.4060    -1.5820 ca         1 3P7      -0.206000
     19 C26          6.1270     0.7670    -0.4730 ca         1 3P7       0.091100
     20 O26          7.3880     1.2040    -0.6800 oh         1 3P7      -0.522100
     21 C27          5.5680     0.6600     0.7980 ca         1 3P7      -0.206000
     22 C28          4.2680     0.2050     0.9520 ca         1 3P7      -0.077500
     23 C29          2.0340    -1.8150     1.0590 c          1 3P7       0.946600
     24 O30          1.6920    -1.5030     2.2120 o          1 3P7      -0.809300
     25 O31          2.3760    -2.9290     0.6330 o          1 3P7      -0.809300
     26 O61         -1.6150     1.9200    -0.5390 os         1 3P7      -0.405600
     27 C62         -0.6030     2.5100    -1.3290 c3         1 3P7       0.133700
     28 O81         -4.8880    -2.8290    -1.3080 o          1 3P7      -0.812800
     29 O82         -3.5580    -1.6670    -2.6830 o          1 3P7      -0.812800
     30 H1          -0.4420    -0.6500    -0.2510 hn         1 3P7       0.364500
     31 H2          -2.1730    -0.3060     1.8210 h2         1 3P7       0.082700
     32 H3          -4.6460    -0.1710     2.2570 h1         1 3P7       0.033700
     33 H4          -5.4470     1.2900     1.6650 h1         1 3P7       0.033700
     34 H6          -7.1140     0.2990     0.1790 ha         1 3P7       0.105500
     35 H7          -6.5860    -0.8000    -1.1990 ha         1 3P7       0.105500
     36 H9           1.7340    -1.0350    -0.9470 hc         1 3P7       0.065700
     37 H10          3.4920    -0.3230    -2.2850 ha         1 3P7       0.145500
     38 H11          5.7920     0.4830    -2.5750 ha         1 3P7       0.112500
     39 H12          7.8070     1.4210     0.1600 ho         1 3P7       0.405000
     40 H13          6.1470     0.9310     1.6740 ha         1 3P7       0.112500
     41 H14          3.8600     0.1200     1.9500 ha         1 3P7       0.145500
     42 H16          0.0760     3.1450    -0.7530 h1         1 3P7       0.022367
     43 H17         -0.0080     1.7680    -1.8670 h1         1 3P7       0.022367
     44 H18         -1.1110     3.1330    -2.0630 h1         1 3P7       0.022367
     45 H20         -0.7130     3.0720     1.4980 h4         1 3P7      -0.022800
@<TRIPOS>BOND
     1     1     2 2   
     2     1     3 1   
     3     1    45 1   
     4     3     4 1   
     5     3     5 1   
     6     3    26 1   
     7     4    13 1   
     8     4    30 1   
     9     5     6 1   
    10     5    11 1   
    11     5    31 1   
    12     6     7 1   
    13     7     8 1   
    14     7    32 1   
    15     7    33 1   
    16     8     9 1   
    17     8    12 2   
    18     9    10 1   
    19     9    11 2   
    20    10    28 1   
    21    10    29 1   
    22    12    34 1   
    23    12    35 1   
    24    13    14 2   
    25    13    15 1   
    26    15    16 1   
    27    15    23 1   
    28    15    36 1   
    29    16    17 ar  
    30    16    22 ar  
    31    17    18 ar  
    32    17    37 1   
    33    18    19 ar  
    34    18    38 1   
    35    19    20 1   
    36    19    21 ar  
    37    20    39 1   
    38    21    22 ar  
    39    21    40 1   
    40    22    41 1   
    41    23    24 1   
    42    23    25 1   
    43    26    27 1   
    44    27    42 1   
    45    27    43 1   
    46    27    44 1   
@<TRIPOS>SUBSTRUCTURE
     1 3P7         1 TEMP              0 ****  ****    0 ROOT
