@<TRIPOS>MOLECULE
3P8
    8     7     1     0     0
SMALL
abcg2


@<TRIPOS>ATOM
      1 C1           0.7980     0.0450     0.0030 c3         1 3P8       0.078900
      2 N1          -0.6800     0.0000     0.0090 nz         1 3P8      -0.968000
      3 H1           1.1490     0.0350     1.0290 hx         1 3P8       0.112033
      4 H2           1.1700    -0.8240    -0.5280 hx         1 3P8       0.112033
      5 H3           1.1170     0.9540    -0.4930 hx         1 3P8       0.112033
      6 H4          -1.0800     0.7980     0.5000 hn         1 3P8       0.517667
      7 H5          -1.0610     0.0070    -0.9350 hn         1 3P8       0.517667
      8 H6          -1.0290    -0.8400     0.4680 hn         1 3P8       0.517667
@<TRIPOS>BOND
     1     1     2 1   
     2     1     3 1   
     3     1     4 1   
     4     1     5 1   
     5     2     6 1   
     6     2     7 1   
     7     2     8 1   
@<TRIPOS>SUBSTRUCTURE
     1 3P8         1 TEMP              0 ****  ****    0 ROOT
