@<TRIPOS>MOLECULE
3P8
    8     7     1     0     0
SMALL
No Charge or Current Charge


@<TRIPOS>ATOM
      1 C1           0.8220     0.0450     0.0040 c3         1 3P8       0.078900
      2 N1          -0.7000    -0.0010     0.0090 nz         1 3P8      -0.968000
      3 H1           1.2010     0.0370     1.0310 hx         1 3P8       0.112033
      4 H2           1.2210    -0.8240    -0.5300 hx         1 3P8       0.112033
      5 H3           1.1680     0.9570    -0.4950 hx         1 3P8       0.112033
      6 H4          -1.1320     0.7990     0.5010 hn         1 3P8       0.517667
      7 H5          -1.1130     0.0050    -0.9380 hn         1 3P8       0.517667
      8 H6          -1.0820    -0.8440     0.4690 hn         1 3P8       0.517667
@<TRIPOS>BOND
     1     1     2 1   
     2     1     3 1   
     3     1     4 1   
     4     1     5 1   
     5     2     6 1   
     6     2     7 1   
     7     2     8 1   
@<TRIPOS>SUBSTRUCTURE
     1 3P8         1 TEMP              0 ****  ****    0 ROOT
