@<TRIPOS>MOLECULE
3P9
   33    32     1     0     0
SMALL
No Charge or Current Charge


@<TRIPOS>ATOM
      1 O3          -3.1610    -1.3340    -1.0630 oh         1 3P9      -0.701000
      2 C7          -3.4710    -0.7080     0.1900 c3         1 3P9       0.167300
      3 C8          -4.9950    -0.5160     0.2990 c3         1 3P9      -0.129100
      4 C6          -2.6840     0.6240     0.3010 c3         1 3P9       0.128600
      5 O2          -1.3280     0.3780    -0.1350 os         1 3P9      -0.433000
      6 C4          -0.4480     1.5270    -0.1750 c3         1 3P9       0.177300
      7 C5          -0.1890     2.0400     1.2630 c3         1 3P9      -0.116100
      8 C3           0.8520     1.1150    -0.9230 c3         1 3P9       0.165600
      9 O1           1.5880     0.1510    -0.1340 os         1 3P9      -0.431000
     10 C1           2.7690    -0.4160    -0.7500 c3         1 3P9       0.175300
     11 C2           3.8430     0.6860    -0.9340 c3         1 3P9      -0.117100
     12 C            3.2580    -1.6080     0.1320 c3         1 3P9       0.167600
     13 O            3.6870    -1.1900     1.4450 oh         1 3P9      -0.707000
     14 H1          -2.2330    -1.0490    -1.2450 ho         1 3P9       0.493000
     15 H2          -3.1450    -1.3520     1.0200 h1         1 3P9       0.085700
     16 H3          -5.5110    -1.4820     0.2420 hc         1 3P9       0.041700
     17 H4          -5.2550    -0.0480     1.2560 hc         1 3P9       0.041700
     18 H5          -5.3690     0.1230    -0.5100 hc         1 3P9       0.041700
     19 H6          -3.1570     1.3860    -0.3330 h1         1 3P9       0.018700
     20 H7          -2.7160     0.9710     1.3420 h1         1 3P9       0.018700
     21 H8          -0.9150     2.3350    -0.7540 h1         1 3P9       0.026700
     22 H9           0.6130     2.7870     1.2610 hc         1 3P9       0.044700
     23 H10         -1.0830     2.5190     1.6790 hc         1 3P9       0.044700
     24 H11          0.1090     1.2190     1.9260 hc         1 3P9       0.044700
     25 H12          0.5860     0.6940    -1.9010 h1         1 3P9       0.024200
     26 H13          1.4520     2.0170    -1.0930 h1         1 3P9       0.024200
     27 H14          2.5170    -0.8230    -1.7380 h1         1 3P9       0.027700
     28 H15          4.0020     1.2400    -0.0020 hc         1 3P9       0.042033
     29 H16          4.7980     0.2390    -1.2340 hc         1 3P9       0.042033
     30 H17          3.5530     1.3950    -1.7180 hc         1 3P9       0.042033
     31 H18          2.4420    -2.3380     0.2150 h1         1 3P9       0.025200
     32 H19          4.0860    -2.1080    -0.3890 h1         1 3P9       0.025200
     33 H20          3.9050    -2.0090     1.9480 ho         1 3P9       0.498000
@<TRIPOS>BOND
     1     1     2 1   
     2     1    14 1   
     3     2     3 1   
     4     2     4 1   
     5     2    15 1   
     6     3    16 1   
     7     3    17 1   
     8     3    18 1   
     9     4     5 1   
    10     4    19 1   
    11     4    20 1   
    12     5     6 1   
    13     6     7 1   
    14     6     8 1   
    15     6    21 1   
    16     7    22 1   
    17     7    23 1   
    18     7    24 1   
    19     8     9 1   
    20     8    25 1   
    21     8    26 1   
    22     9    10 1   
    23    10    11 1   
    24    10    12 1   
    25    10    27 1   
    26    11    28 1   
    27    11    29 1   
    28    11    30 1   
    29    12    13 1   
    30    12    31 1   
    31    12    32 1   
    32    13    33 1   
@<TRIPOS>SUBSTRUCTURE
     1 3P9         1 TEMP              0 ****  ****    0 ROOT
