@<TRIPOS>MOLECULE
3P9
   33    32     1     0     0
SMALL
abcg2


@<TRIPOS>ATOM
      1 O3          -3.1160    -1.6510    -0.7890 oh         1 3P9      -0.701000
      2 C7          -3.3640    -0.7220     0.2470 c3         1 3P9       0.167300
      3 C8          -4.8490    -0.4370     0.4130 c3         1 3P9      -0.129100
      4 C6          -2.5970     0.5740     0.0470 c3         1 3P9       0.128600
      5 O2          -1.2220     0.3030    -0.0310 os         1 3P9      -0.433000
      6 C4          -0.4110     1.4560    -0.1530 c3         1 3P9       0.177300
      7 C5          -0.1530     2.1110     1.1980 c3         1 3P9      -0.116100
      8 C3           0.8710     1.0600    -0.8590 c3         1 3P9       0.165600
      9 O1           1.5960     0.1550    -0.0700 os         1 3P9      -0.431000
     10 C1           2.7940    -0.3030    -0.6650 c3         1 3P9       0.175300
     11 C2           3.9070     0.7340    -0.5830 c3         1 3P9      -0.117100
     12 C            3.1680    -1.6210    -0.0160 c3         1 3P9       0.167600
     13 O            3.4920    -1.4190     1.3390 oh         1 3P9      -0.707000
     14 H1          -3.4730    -1.2910    -1.6080 ho         1 3P9       0.493000
     15 H2          -2.9930    -1.2000     1.1600 h1         1 3P9       0.085700
     16 H3          -5.4040    -1.3580     0.5890 hc         1 3P9       0.041700
     17 H4          -5.0310     0.2290     1.2580 hc         1 3P9       0.041700
     18 H5          -5.2610     0.0420    -0.4790 hc         1 3P9       0.041700
     19 H6          -2.9490     1.0730    -0.8710 h1         1 3P9       0.018700
     20 H7          -2.8310     1.2490     0.8810 h1         1 3P9       0.018700
     21 H8          -0.9020     2.1880    -0.8100 h1         1 3P9       0.026700
     22 H9           0.4770     2.9930     1.0770 hc         1 3P9       0.044700
     23 H10         -1.0800     2.4420     1.6660 hc         1 3P9       0.044700
     24 H11          0.3500     1.4280     1.8820 hc         1 3P9       0.044700
     25 H12          0.6300     0.6170    -1.8370 h1         1 3P9       0.024200
     26 H13          1.4400     1.9780    -1.0600 h1         1 3P9       0.024200
     27 H14          2.6120    -0.5340    -1.7260 h1         1 3P9       0.027700
     28 H15          4.1380     0.9940     0.4500 hc         1 3P9       0.042033
     29 H16          4.8160     0.3500    -1.0480 hc         1 3P9       0.042033
     30 H17          3.6390     1.6480    -1.1120 hc         1 3P9       0.042033
     31 H18          2.3300    -2.3210    -0.1330 h1         1 3P9       0.025200
     32 H19          4.0130    -2.0380    -0.5800 h1         1 3P9       0.025200
     33 H20          3.7640    -2.2630     1.7100 ho         1 3P9       0.498000
@<TRIPOS>BOND
     1     1     2 1   
     2     1    14 1   
     3     2     3 1   
     4     2     4 1   
     5     2    15 1   
     6     3    16 1   
     7     3    17 1   
     8     3    18 1   
     9     4     5 1   
    10     4    19 1   
    11     4    20 1   
    12     5     6 1   
    13     6     7 1   
    14     6     8 1   
    15     6    21 1   
    16     7    22 1   
    17     7    23 1   
    18     7    24 1   
    19     8     9 1   
    20     8    25 1   
    21     8    26 1   
    22     9    10 1   
    23    10    11 1   
    24    10    12 1   
    25    10    27 1   
    26    11    28 1   
    27    11    29 1   
    28    11    30 1   
    29    12    13 1   
    30    12    31 1   
    31    12    32 1   
    32    13    33 1   
@<TRIPOS>SUBSTRUCTURE
     1 3P9         1 TEMP              0 ****  ****    0 ROOT
