@<TRIPOS>MOLECULE
3PA
   23    23     1     0     0
SMALL
abcg2


@<TRIPOS>ATOM
      1 C1A          0.4820    -0.4430    -3.3960 c5         1 3PA      -0.081900
      2 C2A          1.1420     0.3580    -2.2600 c5         1 3PA      -0.076400
      3 C3A          0.0640     0.5350    -1.1600 c5         1 3PA      -0.065700
      4 C4A         -1.1380    -0.2840    -1.6550 c5         1 3PA      -0.076400
      5 C5A         -1.0170    -0.2500    -3.1750 c5         1 3PA      -0.081900
      6 C6A          0.5500     0.1480     0.2320 c3         1 3PA      -0.049400
      7 C7A         -0.5080     0.3230     1.3110 c3         1 3PA      -0.205400
      8 C8A         -0.0610     0.0240     2.7530 c          1 3PA       0.716000
      9 O9A          1.1510    -0.1810     2.9600 o          1 3PA      -0.744000
     10 O10         -0.9660     0.0240     3.6160 o          1 3PA      -0.744000
     11 H11          0.8150    -0.1290    -4.3860 hc         1 3PA       0.027450
     12 H21          0.7250    -1.5040    -3.2990 hc         1 3PA       0.027450
     13 H12          1.4830     1.3310    -2.6200 hc         1 3PA       0.038450
     14 H22          2.0260    -0.1550    -1.8750 hc         1 3PA       0.038450
     15 HC3         -0.2370     1.5890    -1.1340 hc         1 3PA       0.033700
     16 H14         -1.0510    -1.3200    -1.3050 hc         1 3PA       0.038450
     17 H24         -2.0930     0.0990    -1.2900 hc         1 3PA       0.038450
     18 H15         -1.3340     0.7260    -3.5550 hc         1 3PA       0.027450
     19 H25         -1.6250    -1.0070    -3.6740 hc         1 3PA       0.027450
     20 H16          1.4300     0.7440     0.4880 hc         1 3PA       0.040200
     21 H26          0.8900    -0.8930     0.2080 hc         1 3PA       0.040200
     22 H17         -1.3810    -0.2990     1.0850 hc         1 3PA       0.015200
     23 H27         -0.8850     1.3530     1.2850 hc         1 3PA       0.015200
@<TRIPOS>BOND
     1     1     2 1   
     2     1     5 1   
     3     1    11 1   
     4     1    12 1   
     5     2     3 1   
     6     2    13 1   
     7     2    14 1   
     8     3     4 1   
     9     3     6 1   
    10     3    15 1   
    11     4     5 1   
    12     4    16 1   
    13     4    17 1   
    14     5    18 1   
    15     5    19 1   
    16     6     7 1   
    17     6    20 1   
    18     6    21 1   
    19     7     8 1   
    20     7    22 1   
    21     7    23 1   
    22     8     9 1   
    23     8    10 1   
@<TRIPOS>SUBSTRUCTURE
     1 3PA         1 TEMP              0 ****  ****    0 ROOT
