@<TRIPOS>MOLECULE
3PA
   23    23     1     0     0
SMALL
No Charge or Current Charge


@<TRIPOS>ATOM
      1 C1A          0.4270    -0.0650    -3.5290 c5         1 3PA      -0.081900
      2 C2A          1.1490    -0.3060    -2.1750 c5         1 3PA      -0.076400
      3 C3A          0.1360     0.2910    -1.1670 c5         1 3PA      -0.065700
      4 C4A         -1.1490    -0.4290    -1.6550 c5         1 3PA      -0.076400
      5 C5A         -1.0930    -0.2070    -3.1950 c5         1 3PA      -0.081900
      6 C6A          0.5050     0.0540     0.3190 c3         1 3PA      -0.049400
      7 C7A         -0.5090     0.6330     1.3380 c3         1 3PA      -0.205400
      8 C8A         -0.0040     0.4100     2.7750 c          1 3PA       0.716000
      9 O9A          0.7150     1.2630     3.2730 o          1 3PA      -0.744000
     10 O10         -0.3040    -0.6320     3.3370 o          1 3PA      -0.744000
     11 H11          0.6450     0.9380    -3.9140 hc         1 3PA       0.027450
     12 H21          0.7520    -0.7780    -4.2950 hc         1 3PA       0.027450
     13 H12          2.1250     0.1910    -2.1330 hc         1 3PA       0.038450
     14 H22          1.3200    -1.3750    -1.9960 hc         1 3PA       0.038450
     15 HC3          0.0510     1.3770    -1.3050 hc         1 3PA       0.033700
     16 H14         -1.1300    -1.4970    -1.4060 hc         1 3PA       0.038450
     17 H24         -2.0610    -0.0100    -1.2150 hc         1 3PA       0.038450
     18 H15         -1.6370     0.7000    -3.4820 hc         1 3PA       0.027450
     19 H25         -1.5570    -1.0400    -3.7360 hc         1 3PA       0.027450
     20 H16          1.4880     0.5000     0.5160 hc         1 3PA       0.040200
     21 H26          0.6170    -1.0220     0.5040 hc         1 3PA       0.040200
     22 H17         -1.4480     0.0890     1.1760 hc         1 3PA       0.015200
     23 H27         -0.5770     1.7050     1.1180 hc         1 3PA       0.015200
@<TRIPOS>BOND
     1     1     2 1   
     2     1     5 1   
     3     1    11 1   
     4     1    12 1   
     5     2     3 1   
     6     2    13 1   
     7     2    14 1   
     8     3     4 1   
     9     3     6 1   
    10     3    15 1   
    11     4     5 1   
    12     4    16 1   
    13     4    17 1   
    14     5    18 1   
    15     5    19 1   
    16     6     7 1   
    17     6    20 1   
    18     6    21 1   
    19     7     8 1   
    20     7    22 1   
    21     7    23 1   
    22     8     9 1   
    23     8    10 1   
@<TRIPOS>SUBSTRUCTURE
     1 3PA         1 TEMP              0 ****  ****    0 ROOT
