@<TRIPOS>MOLECULE
3PC
   72    71     1     0     0
SMALL
No Charge or Current Charge


@<TRIPOS>ATOM
      1 C15         40.4000    18.8390    -3.9400 c3         1 3PC      -0.089100
      2 C14         40.8080    19.7720    -2.7830 c3         1 3PC      -0.075400
      3 C13         40.1540    21.1680    -2.8730 c3         1 3PC      -0.078400
      4 C12         40.5430    22.0950    -1.7020 c3         1 3PC      -0.069400
      5 C11         39.8910    23.4940    -1.7960 c3         1 3PC      -0.146400
      6 C10         40.2070    24.3350    -0.5580 c          1 3PC       0.573100
      7 O7          41.2170    25.0130    -0.4330 o          1 3PC      -0.491000
      8 O6          39.2720    24.1490     0.4210 os         1 3PC      -0.461100
      9 C9          39.4560    24.8200     1.6870 c3         1 3PC       0.138600
     10 C8          38.3560    24.3370     2.6840 c3         1 3PC       0.174300
     11 O5          37.0610    24.7250     2.1650 os         1 3PC      -0.463100
     12 C16         36.6950    26.0460     2.1960 c          1 3PC       0.586100
     13 O8          37.3290    26.9280     2.7580 o          1 3PC      -0.482000
     14 C17         35.3500    26.2780     1.5020 c3         1 3PC      -0.135400
     15 C18         35.5150    26.9210     0.1020 c3         1 3PC      -0.067400
     16 C19         36.4060    26.1090    -0.8690 c3         1 3PC      -0.079400
     17 C20         36.4770    26.7250    -2.2820 c3         1 3PC      -0.076400
     18 C21         37.4070    25.9470    -3.2330 c3         1 3PC      -0.090100
     19 C7          38.3040    22.7940     2.9140 c3         1 3PC      -0.026400
     20 C6          39.1990    22.2370     4.0580 c3         1 3PC      -0.439400
     21 P1          41.0200    22.3980     3.9450 p5         1 3PC       1.375400
     22 O2          41.4190    23.7770     4.3480 o          1 3PC      -0.804000
     23 O3          41.6650    21.3270     4.7570 o          1 3PC      -0.804000
     24 O1          41.1980    22.1640     2.3610 os         1 3PC      -0.614400
     25 C5          42.4940    22.2570     1.7440 c3         1 3PC       0.201600
     26 C4          43.3640    21.0230     2.1070 c3         1 3PC       0.101600
     27 N1          42.9790    19.6410     1.5310 n4         1 3PC      -0.507000
     28 C1          41.5610    19.2410     1.9640 c3         1 3PC       0.084567
     29 C2          43.0570    19.6630    -0.0010 c3         1 3PC       0.084567
     30 C3          43.9680    18.5960     2.0620 c3         1 3PC       0.084567
     31 H151        40.8890    17.8640    -3.8350 hc         1 3PC       0.034700
     32 H152        39.3150    18.6800    -3.9470 hc         1 3PC       0.034700
     33 H153        40.6940    19.2680    -4.9060 hc         1 3PC       0.034700
     34 H141        40.5310    19.3000    -1.8320 hc         1 3PC       0.038700
     35 H142        41.8990    19.8820    -2.7840 hc         1 3PC       0.038700
     36 H131        40.4430    21.6410    -3.8200 hc         1 3PC       0.038200
     37 H132        39.0630    21.0520    -2.8920 hc         1 3PC       0.038200
     38 H121        40.2480    21.6220    -0.7560 hc         1 3PC       0.048200
     39 H122        41.6340    22.2090    -1.6770 hc         1 3PC       0.048200
     40 H111        40.2620    24.0060    -2.6910 hc         1 3PC       0.068700
     41 H112        38.8060    23.3470    -1.8540 hc         1 3PC       0.068700
     42 H91         40.4460    24.6010     2.1010 h1         1 3PC       0.084200
     43 H92         39.3980    25.9080     1.5610 h1         1 3PC       0.084200
     44 H8          38.5290    24.8160     3.6580 h1         1 3PC       0.110700
     45 H171        34.8390    25.3170     1.3720 hc         1 3PC       0.070200
     46 H172        34.7420    26.9460     2.1220 hc         1 3PC       0.070200
     47 H181        34.5200    27.0470    -0.3440 hc         1 3PC       0.050700
     48 H182        35.9370    27.9270     0.2180 hc         1 3PC       0.050700
     49 H191        37.4220    26.0460    -0.4630 hc         1 3PC       0.039700
     50 H192        36.0240    25.0830    -0.9410 hc         1 3PC       0.039700
     51 H201        35.4690    26.7580    -2.7160 hc         1 3PC       0.039700
     52 H202        36.8290    27.7620    -2.2110 hc         1 3PC       0.039700
     53 H211        37.4040    26.4040    -4.2290 hc         1 3PC       0.030367
     54 H212        38.4370    25.9540    -2.8570 hc         1 3PC       0.030367
     55 H213        37.0790    24.9050    -3.3320 hc         1 3PC       0.030367
     56 H71         37.2700    22.5220     3.1620 hc         1 3PC       0.035200
     57 H72         38.5300    22.2630     1.9820 hc         1 3PC       0.035200
     58 H61         38.9170    22.6960     5.0110 hc         1 3PC       0.066200
     59 H62         39.0220    21.1610     4.1550 hc         1 3PC       0.066200
     60 H51         42.3970    22.3270     0.6550 h1         1 3PC       0.065700
     61 H52         43.0130    23.1640     2.0820 h1         1 3PC       0.065700
     62 H41         44.3810    21.2290     1.7680 hx         1 3PC       0.083200
     63 H42         43.3990    20.9270     3.1930 hx         1 3PC       0.083200
     64 H11         41.3350    18.2430     1.5850 hx         1 3PC       0.092478
     65 H12         41.5060    19.2440     3.0540 hx         1 3PC       0.092478
     66 H13         40.8450    19.9590     1.5590 hx         1 3PC       0.092478
     67 H21         42.8230    18.6690    -0.3880 hx         1 3PC       0.092478
     68 H22         42.3350    20.3840    -0.3890 hx         1 3PC       0.092478
     69 H23         44.0660    19.9480    -0.3080 hx         1 3PC       0.092478
     70 H31         43.7080    17.6150     1.6590 hx         1 3PC       0.092478
     71 H32         44.9800    18.8650     1.7520 hx         1 3PC       0.092478
     72 H33         43.9130    18.5710     3.1530 hx         1 3PC       0.092478
@<TRIPOS>BOND
     1     1     2 1   
     2     1    31 1   
     3     1    32 1   
     4     1    33 1   
     5     2     3 1   
     6     2    34 1   
     7     2    35 1   
     8     3     4 1   
     9     3    36 1   
    10     3    37 1   
    11     4     5 1   
    12     4    38 1   
    13     4    39 1   
    14     5     6 1   
    15     5    40 1   
    16     5    41 1   
    17     6     7 2   
    18     6     8 1   
    19     8     9 1   
    20     9    10 1   
    21     9    42 1   
    22     9    43 1   
    23    10    11 1   
    24    10    19 1   
    25    10    44 1   
    26    11    12 1   
    27    12    13 2   
    28    12    14 1   
    29    14    15 1   
    30    14    45 1   
    31    14    46 1   
    32    15    16 1   
    33    15    47 1   
    34    15    48 1   
    35    16    17 1   
    36    16    49 1   
    37    16    50 1   
    38    17    18 1   
    39    17    51 1   
    40    17    52 1   
    41    18    53 1   
    42    18    54 1   
    43    18    55 1   
    44    19    20 1   
    45    19    56 1   
    46    19    57 1   
    47    20    21 1   
    48    20    58 1   
    49    20    59 1   
    50    21    22 1   
    51    21    23 1   
    52    21    24 1   
    53    24    25 1   
    54    25    26 1   
    55    25    60 1   
    56    25    61 1   
    57    26    27 1   
    58    26    62 1   
    59    26    63 1   
    60    27    28 1   
    61    27    29 1   
    62    27    30 1   
    63    28    64 1   
    64    28    65 1   
    65    28    66 1   
    66    29    67 1   
    67    29    68 1   
    68    29    69 1   
    69    30    70 1   
    70    30    71 1   
    71    30    72 1   
@<TRIPOS>SUBSTRUCTURE
     1 3PC         1 TEMP              0 ****  ****    0 ROOT
