@<TRIPOS>MOLECULE
3PC
   72    71     1     0     0
SMALL
abcg2


@<TRIPOS>ATOM
      1 C15         39.8180    19.7720    -5.6780 c3         1 3PC      -0.089100
      2 C14         40.4820    20.7590    -4.7210 c3         1 3PC      -0.075400
      3 C13         39.6720    20.9960    -3.4490 c3         1 3PC      -0.078400
      4 C12         40.3300    21.9910    -2.4980 c3         1 3PC      -0.069400
      5 C11         39.5130    22.2060    -1.2320 c3         1 3PC      -0.146400
      6 C10         40.0890    23.2340    -0.2960 c          1 3PC       0.573100
      7 O7          41.0180    23.9730    -0.5400 o          1 3PC      -0.491000
      8 O6          39.4300    23.2480     0.8710 os         1 3PC      -0.461100
      9 C9          39.7960    24.2680     1.8260 c3         1 3PC       0.138600
     10 C8          38.7130    24.3300     2.8840 c3         1 3PC       0.174300
     11 O5          37.4400    24.5840     2.2190 os         1 3PC      -0.463100
     12 C16         37.1310    25.8450     1.8850 c          1 3PC       0.586100
     13 O8          37.8200    26.8030     2.1630 o          1 3PC      -0.482000
     14 C17         35.8450    25.9220     1.1030 c3         1 3PC      -0.135400
     15 C18         36.0970    26.4030    -0.3340 c3         1 3PC      -0.067400
     16 C19         37.0080    25.4770    -1.1380 c3         1 3PC      -0.079400
     17 C20         37.2000    25.9370    -2.5820 c3         1 3PC      -0.076400
     18 C21         38.1350    25.0280    -3.3760 c3         1 3PC      -0.090100
     19 C7          38.5330    23.0540     3.7060 c3         1 3PC      -0.026400
     20 C6          39.2600    23.0500     5.0560 c3         1 3PC      -0.439400
     21 P1          41.0710    23.2370     5.0940 p5         1 3PC       1.375400
     22 O2          41.5070    24.5540     4.5130 o          1 3PC      -0.804000
     23 O3          41.5850    22.8620     6.4550 o          1 3PC      -0.804000
     24 O1          41.4550    22.0310     4.0300 os         1 3PC      -0.614400
     25 C5          42.8250    21.8200     3.7240 c3         1 3PC       0.201600
     26 C4          43.0570    20.4380     3.1570 c3         1 3PC       0.101600
     27 N1          42.4640    20.1420     1.7910 n4         1 3PC      -0.507000
     28 C1          40.9670    20.0430     1.8520 c3         1 3PC       0.084567
     29 C2          42.8520    21.1860     0.7910 c3         1 3PC       0.084567
     30 C3          43.0070    18.8160     1.3410 c3         1 3PC       0.084567
     31 H151        40.4180    19.6240    -6.5790 hc         1 3PC       0.034700
     32 H152        39.6820    18.7970    -5.2020 hc         1 3PC       0.034700
     33 H153        38.8330    20.1310    -5.9870 hc         1 3PC       0.034700
     34 H141        41.4770    20.3930    -4.4490 hc         1 3PC       0.038700
     35 H142        40.6360    21.7160    -5.2310 hc         1 3PC       0.038700
     36 H131        38.6740    21.3610    -3.7180 hc         1 3PC       0.038200
     37 H132        39.5210    20.0410    -2.9320 hc         1 3PC       0.038200
     38 H121        41.3300    21.6380    -2.2310 hc         1 3PC       0.048200
     39 H122        40.4660    22.9480    -3.0090 hc         1 3PC       0.048200
     40 H111        38.5000    22.5390    -1.4780 hc         1 3PC       0.068700
     41 H112        39.3920    21.2730    -0.6770 hc         1 3PC       0.068700
     42 H91         40.7500    24.0230     2.2860 h1         1 3PC       0.084200
     43 H92         39.8830    25.2210     1.3070 h1         1 3PC       0.084200
     44 H8          38.9340    25.1750     3.5320 h1         1 3PC       0.110700
     45 H171        35.3610    24.9460     1.0990 hc         1 3PC       0.070200
     46 H172        35.1910    26.6300     1.6170 hc         1 3PC       0.070200
     47 H181        35.1300    26.4920    -0.8350 hc         1 3PC       0.050700
     48 H182        36.5300    27.4070    -0.3030 hc         1 3PC       0.050700
     49 H191        37.9880    25.4150    -0.6540 hc         1 3PC       0.039700
     50 H192        36.5970    24.4620    -1.1300 hc         1 3PC       0.039700
     51 H201        36.2240    25.9850    -3.0760 hc         1 3PC       0.039700
     52 H202        37.5960    26.9580    -2.5820 hc         1 3PC       0.039700
     53 H211        38.2600    25.3820    -4.4010 hc         1 3PC       0.030367
     54 H212        39.1230    24.9850    -2.9130 hc         1 3PC       0.030367
     55 H213        37.7480    24.0070    -3.4190 hc         1 3PC       0.030367
     56 H71         37.4650    22.9460     3.9050 hc         1 3PC       0.035200
     57 H72         38.8280    22.1870     3.1160 hc         1 3PC       0.035200
     58 H61         38.8730    23.8570     5.6870 hc         1 3PC       0.066200
     59 H62         39.0330    22.1150     5.5730 hc         1 3PC       0.066200
     60 H51         43.1880    22.5990     3.0510 h1         1 3PC       0.065700
     61 H52         43.4330    21.8660     4.6330 h1         1 3PC       0.065700
     62 H41         44.1310    20.2890     3.0510 hx         1 3PC       0.083200
     63 H42         42.6590    19.6770     3.8270 hx         1 3PC       0.083200
     64 H11         40.6130    19.7530     0.8660 hx         1 3PC       0.092478
     65 H12         40.7040    19.2890     2.5880 hx         1 3PC       0.092478
     66 H13         40.5660    21.0070     2.1360 hx         1 3PC       0.092478
     67 H21         42.4870    20.8700    -0.1820 hx         1 3PC       0.092478
     68 H22         42.3980    22.1310     1.0670 hx         1 3PC       0.092478
     69 H23         43.9360    21.2730     0.7810 hx         1 3PC       0.092478
     70 H31         42.5610    18.5740     0.3810 hx         1 3PC       0.092478
     71 H32         44.0870    18.8980     1.2500 hx         1 3PC       0.092478
     72 H33         42.7420    18.0670     2.0830 hx         1 3PC       0.092478
@<TRIPOS>BOND
     1     1     2 1   
     2     1    31 1   
     3     1    32 1   
     4     1    33 1   
     5     2     3 1   
     6     2    34 1   
     7     2    35 1   
     8     3     4 1   
     9     3    36 1   
    10     3    37 1   
    11     4     5 1   
    12     4    38 1   
    13     4    39 1   
    14     5     6 1   
    15     5    40 1   
    16     5    41 1   
    17     6     7 2   
    18     6     8 1   
    19     8     9 1   
    20     9    10 1   
    21     9    42 1   
    22     9    43 1   
    23    10    11 1   
    24    10    19 1   
    25    10    44 1   
    26    11    12 1   
    27    12    13 2   
    28    12    14 1   
    29    14    15 1   
    30    14    45 1   
    31    14    46 1   
    32    15    16 1   
    33    15    47 1   
    34    15    48 1   
    35    16    17 1   
    36    16    49 1   
    37    16    50 1   
    38    17    18 1   
    39    17    51 1   
    40    17    52 1   
    41    18    53 1   
    42    18    54 1   
    43    18    55 1   
    44    19    20 1   
    45    19    56 1   
    46    19    57 1   
    47    20    21 1   
    48    20    58 1   
    49    20    59 1   
    50    21    22 1   
    51    21    23 1   
    52    21    24 1   
    53    24    25 1   
    54    25    26 1   
    55    25    60 1   
    56    25    61 1   
    57    26    27 1   
    58    26    62 1   
    59    26    63 1   
    60    27    28 1   
    61    27    29 1   
    62    27    30 1   
    63    28    64 1   
    64    28    65 1   
    65    28    66 1   
    66    29    67 1   
    67    29    68 1   
    68    29    69 1   
    69    30    70 1   
    70    30    71 1   
    71    30    72 1   
@<TRIPOS>SUBSTRUCTURE
     1 3PC         1 TEMP              0 ****  ****    0 ROOT
