@<TRIPOS>MOLECULE
3PE
  133   132     1     0     0
SMALL
abcg2


@<TRIPOS>ATOM
      1 P           -7.1550    11.7160    -9.7520 p5         1 3PE       1.370800
      2 N           -7.8650    14.5060    -6.5670 nz         1 3PE      -0.979000
      3 O11         -5.5960    11.8470    -9.2460 os         1 3PE      -0.589400
      4 O12         -7.1510    12.2020   -11.1630 o          1 3PE      -0.774000
      5 O13         -7.9040    12.8300    -8.7860 os         1 3PE      -0.612400
      6 O14         -7.7220    10.4030    -9.3290 o          1 3PE      -0.774000
      7 C11         -7.7050    14.2040    -9.0200 c3         1 3PE       0.206600
      8 C12         -8.3490    14.9760    -7.8910 c3         1 3PE       0.092600
      9 C1          -5.2540    11.4120    -7.9500 c3         1 3PE       0.198600
     10 C2          -3.8360    11.8700    -7.6330 c3         1 3PE       0.171300
     11 C3          -2.8080    11.0340    -8.3640 c3         1 3PE       0.167600
     12 O31         -1.5220    11.4990    -7.9620 os         1 3PE      -0.460100
     13 O32         -0.5140    10.0860    -9.3640 o          1 3PE      -0.476000
     14 C31         -0.4500    10.9640    -8.5410 c          1 3PE       0.595100
     15 C32          0.8150    11.5980    -8.0310 c3         1 3PE      -0.137400
     16 C33          2.0810    11.0760    -8.6920 c3         1 3PE      -0.068400
     17 C34          3.3210    11.7780    -8.1520 c3         1 3PE      -0.076400
     18 C35          4.6150    11.2910    -8.7910 c3         1 3PE      -0.074400
     19 C36          5.8460    12.0040    -8.2430 c3         1 3PE      -0.074400
     20 C37          7.1560    11.5300    -8.8600 c3         1 3PE      -0.073400
     21 C38          8.3710    12.2510    -8.2890 c3         1 3PE      -0.074400
     22 C39          9.6970    11.7820    -8.8740 c3         1 3PE      -0.073400
     23 C3A         10.8950    12.5060    -8.2730 c3         1 3PE      -0.074400
     24 C3B         12.2370    12.0400    -8.8230 c3         1 3PE      -0.073400
     25 C3C         13.4190    12.7670    -8.1930 c3         1 3PE      -0.074400
     26 C3D         14.7730    12.3020    -8.7130 c3         1 3PE      -0.073400
     27 C3E         15.9420    13.0280    -8.0590 c3         1 3PE      -0.074400
     28 C3F         17.3050    12.5660    -8.5590 c3         1 3PE      -0.074400
     29 C3G         18.4650    13.2910    -7.8890 c3         1 3PE      -0.075400
     30 C3H         19.8320    12.8300    -8.3790 c3         1 3PE      -0.074400
     31 C3I         20.9820    13.5600    -7.6980 c3         1 3PE      -0.088100
     32 O21         -3.5900    13.2170    -8.0580 os         1 3PE      -0.395100
     33 O22         -5.0390    14.1020    -6.6170 o          1 3PE      -0.610000
     34 C21         -4.2510    14.2260    -7.5310 c          1 3PE       0.642100
     35 C22         -3.9060    15.5250    -8.2010 c3         1 3PE      -0.156400
     36 C23         -4.6440    16.7320    -7.6490 c3         1 3PE      -0.060400
     37 C24         -4.2130    18.0150    -8.3470 c3         1 3PE      -0.081400
     38 C25         -4.9450    19.2500    -7.8390 c3         1 3PE      -0.071400
     39 C26         -4.4990    20.5280    -8.5380 c3         1 3PE      -0.076400
     40 C27         -5.2210    21.7760    -8.0460 c3         1 3PE      -0.073400
     41 C28         -4.7610    23.0470    -8.7490 c3         1 3PE      -0.075400
     42 C29         -5.4740    24.3020    -8.2650 c3         1 3PE      -0.073400
     43 C2A         -5.0010    25.5680    -8.9700 c3         1 3PE      -0.074400
     44 C2B         -5.7060    26.8300    -8.4880 c3         1 3PE      -0.073400
     45 C2C         -5.2220    28.0930    -9.1900 c3         1 3PE      -0.074400
     46 C2D         -5.9170    29.3590    -8.7050 c3         1 3PE      -0.073400
     47 C2E         -5.4220    30.6200    -9.4010 c3         1 3PE      -0.074400
     48 C2F         -6.1070    31.8900    -8.9100 c3         1 3PE      -0.074400
     49 C2G         -5.6010    33.1520    -9.5970 c3         1 3PE      -0.075400
     50 C2H         -6.2750    34.4240    -9.0970 c3         1 3PE      -0.075400
     51 C2I         -5.7530    35.6800    -9.7820 c3         1 3PE      -0.088100
     52 HN1         -8.2640    15.0620    -5.8120 hn         1 3PE       0.515000
     53 HN2         -6.8390    14.5480    -6.4780 hn         1 3PE       0.515000
     54 HN3         -8.1400    13.5390    -6.4000 hn         1 3PE       0.515000
     55 H111        -8.1700    14.5340    -9.9530 h1         1 3PE       0.058700
     56 H112        -6.6420    14.4570    -9.0930 h1         1 3PE       0.058700
     57 H121        -9.4300    14.8590    -7.8920 hx         1 3PE       0.084700
     58 H122        -8.1160    16.0350    -7.9730 hx         1 3PE       0.084700
     59 H11         -5.9440    11.7990    -7.1970 h1         1 3PE       0.035200
     60 H12         -5.2820    10.3190    -7.8690 h1         1 3PE       0.035200
     61 H2          -3.6790    11.7820    -6.5530 h1         1 3PE       0.058700
     62 H31         -2.9310    11.1220    -9.4460 h1         1 3PE       0.079700
     63 H32         -2.9400     9.9860    -8.0880 h1         1 3PE       0.079700
     64 H321         0.8580    11.4440    -6.9480 hc         1 3PE       0.067700
     65 H322         0.7320    12.6810    -8.1670 hc         1 3PE       0.067700
     66 H331         2.1700     9.9990    -8.5290 hc         1 3PE       0.056200
     67 H332         2.0220    11.2220    -9.7740 hc         1 3PE       0.056200
     68 H341         3.3770    11.6340    -7.0670 hc         1 3PE       0.035700
     69 H342         3.2250    12.8580    -8.3090 hc         1 3PE       0.035700
     70 H351         4.7170    10.2120    -8.6310 hc         1 3PE       0.041700
     71 H352         4.5630    11.4340    -9.8760 hc         1 3PE       0.041700
     72 H361         5.7400    13.0830    -8.4050 hc         1 3PE       0.035700
     73 H362         5.8880    11.8660    -7.1570 hc         1 3PE       0.035700
     74 H371         7.1220    11.6720    -9.9450 hc         1 3PE       0.038700
     75 H372         7.2630    10.4510    -8.6990 hc         1 3PE       0.038700
     76 H381         8.2640    13.3280    -8.4560 hc         1 3PE       0.036200
     77 H382         8.3900    12.1160    -7.2020 hc         1 3PE       0.036200
     78 H391         9.6900    11.9250    -9.9600 hc         1 3PE       0.038200
     79 H392         9.8040    10.7030    -8.7110 hc         1 3PE       0.038200
     80 H3A1        10.7900    13.5840    -8.4430 hc         1 3PE       0.036700
     81 H3A2        10.8860    12.3720    -7.1850 hc         1 3PE       0.036700
     82 H3B1        12.3430    10.9620    -8.6560 hc         1 3PE       0.037700
     83 H3B2        12.2580    12.1810    -9.9090 hc         1 3PE       0.037700
     84 H3C1        13.3850    12.6330    -7.1060 hc         1 3PE       0.036700
     85 H3C2        13.3150    13.8440    -8.3660 hc         1 3PE       0.036700
     86 H3D1        14.8760    11.2240    -8.5460 hc         1 3PE       0.037700
     87 H3D2        14.8170    12.4450    -9.7990 hc         1 3PE       0.037700
     88 H3E1        15.8410    14.1060    -8.2290 hc         1 3PE       0.036700
     89 H3E2        15.8890    12.8900    -6.9730 hc         1 3PE       0.036700
     90 H3F1        17.4050    11.4870    -8.3930 hc         1 3PE       0.036700
     91 H3F2        17.3630    12.7100    -9.6440 hc         1 3PE       0.036700
     92 H3G1        18.3650    14.3690    -8.0570 hc         1 3PE       0.036700
     93 H3G2        18.4020    13.1490    -6.8040 hc         1 3PE       0.036700
     94 H3H1        19.8960    12.9750    -9.4620 hc         1 3PE       0.036700
     95 H3H2        19.9310    11.7530    -8.2120 hc         1 3PE       0.036700
     96 H3I1        21.9500    13.2160    -8.0630 hc         1 3PE       0.031367
     97 H3I2        20.9610    13.4060    -6.6170 hc         1 3PE       0.031367
     98 H3I3        20.9250    14.6360    -7.8760 hc         1 3PE       0.031367
     99 H221        -4.0980    15.4130    -9.2730 hc         1 3PE       0.091700
    100 H222        -2.8230    15.6660    -8.1160 hc         1 3PE       0.091700
    101 H231        -5.7240    16.6060    -7.7780 hc         1 3PE       0.031700
    102 H232        -4.4700    16.8210    -6.5730 hc         1 3PE       0.031700
    103 H241        -4.3770    17.9150    -9.4250 hc         1 3PE       0.048700
    104 H242        -3.1340    18.1510    -8.2150 hc         1 3PE       0.048700
    105 H251        -6.0230    19.1170    -7.9770 hc         1 3PE       0.033200
    106 H252        -4.7860    19.3500    -6.7600 hc         1 3PE       0.033200
    107 H261        -3.4200    20.6560    -8.4010 hc         1 3PE       0.042200
    108 H262        -4.6550    20.4230    -9.6180 hc         1 3PE       0.042200
    109 H271        -5.0680    21.8820    -6.9660 hc         1 3PE       0.036200
    110 H272        -6.3000    21.6530    -8.1880 hc         1 3PE       0.036200
    111 H281        -3.6810    23.1660    -8.6080 hc         1 3PE       0.039200
    112 H282        -4.9120    22.9380    -9.8290 hc         1 3PE       0.039200
    113 H291        -5.3250    24.4100    -7.1850 hc         1 3PE       0.036700
    114 H292        -6.5540    24.1880    -8.4120 hc         1 3PE       0.036700
    115 H2A1        -3.9210    25.6790    -8.8250 hc         1 3PE       0.038200
    116 H2A2        -5.1510    25.4600   -10.0500 hc         1 3PE       0.038200
    117 H2B1        -6.7860    26.7230    -8.6370 hc         1 3PE       0.036700
    118 H2B2        -5.5590    26.9360    -7.4070 hc         1 3PE       0.036700
    119 H2C1        -5.3720    27.9880   -10.2700 hc         1 3PE       0.037700
    120 H2C2        -4.1410    28.1950    -9.0440 hc         1 3PE       0.037700
    121 H2D1        -6.9980    29.2610    -8.8550 hc         1 3PE       0.036700
    122 H2D2        -5.7710    29.4600    -7.6240 hc         1 3PE       0.036700
    123 H2E1        -4.3400    30.7130    -9.2550 hc         1 3PE       0.037700
    124 H2E2        -5.5730    30.5220   -10.4820 hc         1 3PE       0.037700
    125 H2F1        -7.1880    31.8020    -9.0620 hc         1 3PE       0.036700
    126 H2F2        -5.9620    31.9830    -7.8270 hc         1 3PE       0.036700
    127 H2G1        -4.5180    33.2350    -9.4490 hc         1 3PE       0.037200
    128 H2G2        -5.7510    33.0630   -10.6780 hc         1 3PE       0.037200
    129 H2H1        -6.1280    34.5080    -8.0150 hc         1 3PE       0.036700
    130 H2H2        -7.3560    34.3450    -9.2500 hc         1 3PE       0.036700
    131 H2I1        -6.2450    36.5770    -9.4030 hc         1 3PE       0.031367
    132 H2I2        -5.9220    35.6400   -10.8600 hc         1 3PE       0.031367
    133 H2I3        -4.6800    35.7980    -9.6230 hc         1 3PE       0.031367
@<TRIPOS>BOND
     1     1     3 1   
     2     1     4 1   
     3     1     5 1   
     4     1     6 1   
     5     2     8 1   
     6     2    52 1   
     7     2    53 1   
     8     2    54 1   
     9     3     9 1   
    10     5     7 1   
    11     7     8 1   
    12     7    55 1   
    13     7    56 1   
    14     8    57 1   
    15     8    58 1   
    16     9    10 1   
    17     9    59 1   
    18     9    60 1   
    19    10    11 1   
    20    10    32 1   
    21    10    61 1   
    22    11    12 1   
    23    11    62 1   
    24    11    63 1   
    25    12    14 1   
    26    13    14 2   
    27    14    15 1   
    28    15    16 1   
    29    15    64 1   
    30    15    65 1   
    31    16    17 1   
    32    16    66 1   
    33    16    67 1   
    34    17    18 1   
    35    17    68 1   
    36    17    69 1   
    37    18    19 1   
    38    18    70 1   
    39    18    71 1   
    40    19    20 1   
    41    19    72 1   
    42    19    73 1   
    43    20    21 1   
    44    20    74 1   
    45    20    75 1   
    46    21    22 1   
    47    21    76 1   
    48    21    77 1   
    49    22    23 1   
    50    22    78 1   
    51    22    79 1   
    52    23    24 1   
    53    23    80 1   
    54    23    81 1   
    55    24    25 1   
    56    24    82 1   
    57    24    83 1   
    58    25    26 1   
    59    25    84 1   
    60    25    85 1   
    61    26    27 1   
    62    26    86 1   
    63    26    87 1   
    64    27    28 1   
    65    27    88 1   
    66    27    89 1   
    67    28    29 1   
    68    28    90 1   
    69    28    91 1   
    70    29    30 1   
    71    29    92 1   
    72    29    93 1   
    73    30    31 1   
    74    30    94 1   
    75    30    95 1   
    76    31    96 1   
    77    31    97 1   
    78    31    98 1   
    79    32    34 1   
    80    33    34 2   
    81    34    35 1   
    82    35    36 1   
    83    35    99 1   
    84    35   100 1   
    85    36    37 1   
    86    36   101 1   
    87    36   102 1   
    88    37    38 1   
    89    37   103 1   
    90    37   104 1   
    91    38    39 1   
    92    38   105 1   
    93    38   106 1   
    94    39    40 1   
    95    39   107 1   
    96    39   108 1   
    97    40    41 1   
    98    40   109 1   
    99    40   110 1   
   100    41    42 1   
   101    41   111 1   
   102    41   112 1   
   103    42    43 1   
   104    42   113 1   
   105    42   114 1   
   106    43    44 1   
   107    43   115 1   
   108    43   116 1   
   109    44    45 1   
   110    44   117 1   
   111    44   118 1   
   112    45    46 1   
   113    45   119 1   
   114    45   120 1   
   115    46    47 1   
   116    46   121 1   
   117    46   122 1   
   118    47    48 1   
   119    47   123 1   
   120    47   124 1   
   121    48    49 1   
   122    48   125 1   
   123    48   126 1   
   124    49    50 1   
   125    49   127 1   
   126    49   128 1   
   127    50    51 1   
   128    50   129 1   
   129    50   130 1   
   130    51   131 1   
   131    51   132 1   
   132    51   133 1   
@<TRIPOS>SUBSTRUCTURE
     1 3PE         1 TEMP              0 ****  ****    0 ROOT
