@<TRIPOS>MOLECULE
3PE
  133   132     1     0     0
SMALL
No Charge or Current Charge


@<TRIPOS>ATOM
      1 P           -7.4650    12.7820    -9.3050 p5         1 3PE       1.370800
      2 N           -7.1720    14.3700    -5.4360 nz         1 3PE      -0.979000
      3 O11         -5.9180    12.5330    -8.9290 os         1 3PE      -0.589400
      4 O12         -7.6070    13.5760   -10.5580 o          1 3PE      -0.774000
      5 O13         -7.8790    13.6540    -8.0150 os         1 3PE      -0.612400
      6 O14         -8.2200    11.4980    -9.3600 o          1 3PE      -0.774000
      7 C11         -7.3850    14.9970    -7.9010 c3         1 3PE       0.206600
      8 C12         -7.5800    15.4390    -6.4300 c3         1 3PE       0.092600
      9 C1          -5.6070    11.6950    -7.8070 c3         1 3PE       0.198600
     10 C2          -4.0630    11.6020    -7.6220 c3         1 3PE       0.171300
     11 C3          -3.3910    10.8150    -8.7710 c3         1 3PE       0.167600
     12 O31         -2.0430    10.4820    -8.3700 os         1 3PE      -0.460100
     13 O32         -1.6710     9.3180   -10.3130 o          1 3PE      -0.476000
     14 C31         -1.2820     9.7340    -9.2300 c          1 3PE       0.595100
     15 C32          0.0980     9.4230    -8.6460 c3         1 3PE      -0.137400
     16 C33          1.1890    10.3490    -9.2360 c3         1 3PE      -0.068400
     17 C34          2.5830    10.1040    -8.6170 c3         1 3PE      -0.076400
     18 C35          3.6870    10.9910    -9.2340 c3         1 3PE      -0.074400
     19 C36          5.0670    10.7890    -8.5700 c3         1 3PE      -0.074400
     20 C37          6.1800    11.6520    -9.2060 c3         1 3PE      -0.073400
     21 C38          7.5430    11.5020    -8.4930 c3         1 3PE      -0.074400
     22 C39          8.6630    12.3550    -9.1320 c3         1 3PE      -0.073400
     23 C3A         10.0040    12.2640    -8.3680 c3         1 3PE      -0.074400
     24 C3B         11.1230    13.1200    -9.0040 c3         1 3PE      -0.073400
     25 C3C         12.4390    13.0890    -8.1960 c3         1 3PE      -0.074400
     26 C3D         13.5590    13.9460    -8.8270 c3         1 3PE      -0.073400
     27 C3E         14.8540    13.9650    -7.9850 c3         1 3PE      -0.074400
     28 C3F         15.9740    14.8200    -8.6180 c3         1 3PE      -0.074400
     29 C3G         17.2560    14.8740    -7.7560 c3         1 3PE      -0.075400
     30 C3H         18.3780    15.7250    -8.3930 c3         1 3PE      -0.074400
     31 C3I         19.6500    15.7950    -7.5250 c3         1 3PE      -0.088100
     32 O21         -3.4540    12.9200    -7.5810 os         1 3PE      -0.395100
     33 O22         -4.5080    13.5360    -5.6310 o          1 3PE      -0.610000
     34 C21         -3.7270    13.7710    -6.5450 c          1 3PE       0.642100
     35 C22         -2.9530    15.0830    -6.6650 c3         1 3PE      -0.156400
     36 C23         -3.8280    16.2040    -7.2690 c3         1 3PE      -0.060400
     37 C24         -3.1110    17.5690    -7.3420 c3         1 3PE      -0.081400
     38 C25         -4.0240    18.6980    -7.8720 c3         1 3PE      -0.071400
     39 C26         -3.3190    20.0710    -7.9300 c3         1 3PE      -0.076400
     40 C27         -4.2560    21.2140    -8.3790 c3         1 3PE      -0.073400
     41 C28         -3.5510    22.5880    -8.4320 c3         1 3PE      -0.075400
     42 C29         -4.5010    23.7450    -8.8110 c3         1 3PE      -0.073400
     43 C2A         -3.7900    25.1160    -8.8620 c3         1 3PE      -0.074400
     44 C2B         -4.7470    26.2870    -9.1820 c3         1 3PE      -0.073400
     45 C2C         -4.0270    27.6530    -9.2390 c3         1 3PE      -0.074400
     46 C2D         -4.9840    28.8360    -9.5080 c3         1 3PE      -0.073400
     47 C2E         -4.2510    30.1950    -9.5800 c3         1 3PE      -0.074400
     48 C2F         -5.2030    31.3890    -9.8130 c3         1 3PE      -0.074400
     49 C2G         -4.4590    32.7410    -9.9030 c3         1 3PE      -0.075400
     50 C2H         -5.4070    33.9410   -10.1140 c3         1 3PE      -0.075400
     51 C2I         -4.6600    35.2860   -10.2160 c3         1 3PE      -0.088100
     52 HN1         -7.3710    14.6200    -4.4550 hn         1 3PE       0.515000
     53 HN2         -6.1640    14.1250    -5.4740 hn         1 3PE       0.515000
     54 HN3         -7.6750    13.4890    -5.6170 hn         1 3PE       0.515000
     55 H111        -7.9260    15.6820    -8.5670 h1         1 3PE       0.058700
     56 H112        -6.3180    15.0420    -8.1530 h1         1 3PE       0.058700
     57 H121        -8.6400    15.6610    -6.2760 hx         1 3PE       0.084700
     58 H122        -7.0050    16.3520    -6.2430 hx         1 3PE       0.084700
     59 H11         -6.0710    12.0800    -6.8910 h1         1 3PE       0.035200
     60 H12         -6.0020    10.6820    -7.9620 h1         1 3PE       0.035200
     61 H2          -3.8670    11.0630    -6.6860 h1         1 3PE       0.058700
     62 H31         -3.3980    11.4230    -9.6860 h1         1 3PE       0.079700
     63 H32         -3.9680     9.9000    -8.9660 h1         1 3PE       0.079700
     64 H321         0.3550     8.3820    -8.8720 hc         1 3PE       0.067700
     65 H322         0.0740     9.5850    -7.5620 hc         1 3PE       0.067700
     66 H331         1.2410    10.1970   -10.3220 hc         1 3PE       0.056200
     67 H332         0.9010    11.3960    -9.0730 hc         1 3PE       0.056200
     68 H341         2.8560     9.0490    -8.7480 hc         1 3PE       0.035700
     69 H342         2.5320    10.2890    -7.5360 hc         1 3PE       0.035700
     70 H351         3.7660    10.7730   -10.3070 hc         1 3PE       0.041700
     71 H352         3.3950    12.0450    -9.1420 hc         1 3PE       0.041700
     72 H361         4.9880    11.0320    -7.5020 hc         1 3PE       0.035700
     73 H362         5.3500     9.7310    -8.6370 hc         1 3PE       0.035700
     74 H371         5.8770    12.7060    -9.1810 hc         1 3PE       0.038700
     75 H372         6.2920    11.3750   -10.2620 hc         1 3PE       0.038700
     76 H381         7.4290    11.7910    -7.4400 hc         1 3PE       0.036200
     77 H382         7.8440    10.4470    -8.5040 hc         1 3PE       0.036200
     78 H391         8.3410    13.4040    -9.1650 hc         1 3PE       0.038200
     79 H392         8.8140    12.0330   -10.1700 hc         1 3PE       0.038200
     80 H3A1         9.8480    12.5900    -7.3320 hc         1 3PE       0.036700
     81 H3A2        10.3290    11.2170    -8.3300 hc         1 3PE       0.036700
     82 H3B1        11.3150    12.7630   -10.0240 hc         1 3PE       0.037700
     83 H3B2        10.7790    14.1590    -9.0870 hc         1 3PE       0.037700
     84 H3C1        12.7860    12.0510    -8.1070 hc         1 3PE       0.036700
     85 H3C2        12.2430    13.4490    -7.1770 hc         1 3PE       0.036700
     86 H3D1        13.7850    13.5610    -9.8300 hc         1 3PE       0.037700
     87 H3D2        13.1980    14.9740    -8.9520 hc         1 3PE       0.037700
     88 H3E1        14.6250    14.3550    -6.9840 hc         1 3PE       0.036700
     89 H3E2        15.2150    12.9370    -7.8530 hc         1 3PE       0.036700
     90 H3F1        16.2210    14.4140    -9.6070 hc         1 3PE       0.036700
     91 H3F2        15.6040    15.8410    -8.7730 hc         1 3PE       0.036700
     92 H3G1        17.0090    15.2850    -6.7690 hc         1 3PE       0.036700
     93 H3G2        17.6260    13.8530    -7.5950 hc         1 3PE       0.036700
     94 H3H1        18.0080    16.7450    -8.5650 hc         1 3PE       0.036700
     95 H3H2        18.6380    15.3090    -9.3750 hc         1 3PE       0.036700
     96 H3I1        20.4160    16.4050    -8.0190 hc         1 3PE       0.031367
     97 H3I2        20.0630    14.7920    -7.3600 hc         1 3PE       0.031367
     98 H3I3        19.4300    16.2450    -6.5490 hc         1 3PE       0.031367
     99 H221        -2.0900    14.9330    -7.3230 hc         1 3PE       0.091700
    100 H222        -2.6250    15.3860    -5.6640 hc         1 3PE       0.091700
    101 H231        -4.1460    15.9110    -8.2780 hc         1 3PE       0.031700
    102 H232        -4.7350    16.3140    -6.6610 hc         1 3PE       0.031700
    103 H241        -2.2280    17.4810    -7.9880 hc         1 3PE       0.048700
    104 H242        -2.7510    17.8410    -6.3420 hc         1 3PE       0.048700
    105 H251        -4.3820    18.4340    -8.8750 hc         1 3PE       0.033200
    106 H252        -4.9080    18.7760    -7.2270 hc         1 3PE       0.033200
    107 H261        -2.9150    20.3090    -6.9380 hc         1 3PE       0.042200
    108 H262        -2.4650    20.0100    -8.6170 hc         1 3PE       0.042200
    109 H271        -5.1060    21.2730    -7.6870 hc         1 3PE       0.036200
    110 H272        -4.6660    20.9800    -9.3700 hc         1 3PE       0.036200
    111 H281        -3.1040    22.7990    -7.4520 hc         1 3PE       0.039200
    112 H282        -2.7290    22.5420    -9.1560 hc         1 3PE       0.039200
    113 H291        -5.3200    23.7910    -8.0810 hc         1 3PE       0.036700
    114 H292        -4.9550    23.5370    -9.7890 hc         1 3PE       0.036700
    115 H2A1        -3.3050    25.3060    -7.8960 hc         1 3PE       0.038200
    116 H2A2        -2.9950    25.0810    -9.6180 hc         1 3PE       0.038200
    117 H2B1        -5.2400    26.0990   -10.1440 hc         1 3PE       0.036700
    118 H2B2        -5.5350    26.3260    -8.4200 hc         1 3PE       0.036700
    119 H2C1        -3.2600    27.6230   -10.0230 hc         1 3PE       0.037700
    120 H2C2        -3.5060    27.8250    -8.2880 hc         1 3PE       0.037700
    121 H2D1        -5.5170    28.6640   -10.4520 hc         1 3PE       0.036700
    122 H2D2        -5.7410    28.8760    -8.7140 hc         1 3PE       0.036700
    123 H2E1        -3.6970    30.3550    -8.6460 hc         1 3PE       0.037700
    124 H2E2        -3.5110    30.1610   -10.3900 hc         1 3PE       0.037700
    125 H2F1        -5.7680    31.2260   -10.7400 hc         1 3PE       0.036700
    126 H2F2        -5.9340    31.4330    -8.9940 hc         1 3PE       0.036700
    127 H2G1        -3.8810    32.8970    -8.9820 hc         1 3PE       0.037200
    128 H2G2        -3.7380    32.7010   -10.7300 hc         1 3PE       0.037200
    129 H2H1        -6.1210    33.9920    -9.2810 hc         1 3PE       0.036700
    130 H2H2        -5.9920    33.7870   -11.0300 hc         1 3PE       0.036700
    131 H2I1        -5.3710    36.1080   -10.3580 hc         1 3PE       0.031367
    132 H2I2        -3.9650    35.2820   -11.0660 hc         1 3PE       0.031367
    133 H2I3        -4.0860    35.4830    -9.3000 hc         1 3PE       0.031367
@<TRIPOS>BOND
     1     1     3 1   
     2     1     4 1   
     3     1     5 1   
     4     1     6 1   
     5     2     8 1   
     6     2    52 1   
     7     2    53 1   
     8     2    54 1   
     9     3     9 1   
    10     5     7 1   
    11     7     8 1   
    12     7    55 1   
    13     7    56 1   
    14     8    57 1   
    15     8    58 1   
    16     9    10 1   
    17     9    59 1   
    18     9    60 1   
    19    10    11 1   
    20    10    32 1   
    21    10    61 1   
    22    11    12 1   
    23    11    62 1   
    24    11    63 1   
    25    12    14 1   
    26    13    14 2   
    27    14    15 1   
    28    15    16 1   
    29    15    64 1   
    30    15    65 1   
    31    16    17 1   
    32    16    66 1   
    33    16    67 1   
    34    17    18 1   
    35    17    68 1   
    36    17    69 1   
    37    18    19 1   
    38    18    70 1   
    39    18    71 1   
    40    19    20 1   
    41    19    72 1   
    42    19    73 1   
    43    20    21 1   
    44    20    74 1   
    45    20    75 1   
    46    21    22 1   
    47    21    76 1   
    48    21    77 1   
    49    22    23 1   
    50    22    78 1   
    51    22    79 1   
    52    23    24 1   
    53    23    80 1   
    54    23    81 1   
    55    24    25 1   
    56    24    82 1   
    57    24    83 1   
    58    25    26 1   
    59    25    84 1   
    60    25    85 1   
    61    26    27 1   
    62    26    86 1   
    63    26    87 1   
    64    27    28 1   
    65    27    88 1   
    66    27    89 1   
    67    28    29 1   
    68    28    90 1   
    69    28    91 1   
    70    29    30 1   
    71    29    92 1   
    72    29    93 1   
    73    30    31 1   
    74    30    94 1   
    75    30    95 1   
    76    31    96 1   
    77    31    97 1   
    78    31    98 1   
    79    32    34 1   
    80    33    34 2   
    81    34    35 1   
    82    35    36 1   
    83    35    99 1   
    84    35   100 1   
    85    36    37 1   
    86    36   101 1   
    87    36   102 1   
    88    37    38 1   
    89    37   103 1   
    90    37   104 1   
    91    38    39 1   
    92    38   105 1   
    93    38   106 1   
    94    39    40 1   
    95    39   107 1   
    96    39   108 1   
    97    40    41 1   
    98    40   109 1   
    99    40   110 1   
   100    41    42 1   
   101    41   111 1   
   102    41   112 1   
   103    42    43 1   
   104    42   113 1   
   105    42   114 1   
   106    43    44 1   
   107    43   115 1   
   108    43   116 1   
   109    44    45 1   
   110    44   117 1   
   111    44   118 1   
   112    45    46 1   
   113    45   119 1   
   114    45   120 1   
   115    46    47 1   
   116    46   121 1   
   117    46   122 1   
   118    47    48 1   
   119    47   123 1   
   120    47   124 1   
   121    48    49 1   
   122    48   125 1   
   123    48   126 1   
   124    49    50 1   
   125    49   127 1   
   126    49   128 1   
   127    50    51 1   
   128    50   129 1   
   129    50   130 1   
   130    51   131 1   
   131    51   132 1   
   132    51   133 1   
@<TRIPOS>SUBSTRUCTURE
     1 3PE         1 TEMP              0 ****  ****    0 ROOT
