@<TRIPOS>MOLECULE
3PF
   22    23     1     0     0
SMALL
abcg2


@<TRIPOS>ATOM
      1 CAA          2.9780     1.3150    -0.2890 c3         1 3PF       0.091300
      2 OAB          2.7320    -1.4180    -0.0150 o          1 3PF      -0.583000
      3 CAC         -3.0780     0.7610    -0.2210 ca         1 3PF      -0.141000
      4 CAD         -3.0810    -0.6270    -0.1840 ca         1 3PF      -0.070000
      5 CAE         -1.8800     1.4460    -0.0650 ca         1 3PF      -0.065000
      6 CAF         -1.8990    -1.3300    -0.0060 ca         1 3PF      -0.161000
      7 CAG          0.6190     1.4350     0.3790 c6         1 3PF       0.156300
      8 NAH          0.5030    -1.2910     0.3340 ns         1 3PF      -0.148000
      9 CAI          1.7290    -0.7240     0.0710 c          1 3PF       0.611000
     10 CAJ         -0.6930     0.7580     0.1330 ca         1 3PF      -0.148300
     11 CAK         -0.7050    -0.6330     0.1510 ca         1 3PF      -0.002000
     12 NAL          1.7220     0.6220    -0.1060 n          1 3PF      -0.404800
     13 HAA          3.4180     1.6230     0.6640 h1         1 3PF       0.044700
     14 HAAA         3.6900     0.6870    -0.8130 h1         1 3PF       0.044700
     15 HAAB         2.8020     2.2090    -0.8860 h1         1 3PF       0.044700
     16 HAC         -4.0000     1.3070    -0.3710 ha         1 3PF       0.118000
     17 HAD         -4.0080    -1.1730    -0.3070 ha         1 3PF       0.115000
     18 HAE         -1.8680     2.5300    -0.0890 ha         1 3PF       0.113000
     19 HAF         -1.9010    -2.4130     0.0070 ha         1 3PF       0.119000
     20 HAG          0.6510     2.3930    -0.1400 h1         1 3PF       0.049200
     21 HAGA         0.7430     1.6510     1.4490 h1         1 3PF       0.049200
     22 HNAH         0.4970    -2.3000     0.3520 hn         1 3PF       0.166000
@<TRIPOS>BOND
     1     1    12 1   
     2     1    13 1   
     3     1    14 1   
     4     1    15 1   
     5     2     9 2   
     6     3     4 ar  
     7     3     5 ar  
     8     3    16 1   
     9     4     6 ar  
    10     4    17 1   
    11     5    10 ar  
    12     5    18 1   
    13     6    11 ar  
    14     6    19 1   
    15     7    10 1   
    16     7    12 1   
    17     7    20 1   
    18     7    21 1   
    19     8     9 1   
    20     8    11 1   
    21     8    22 1   
    22     9    12 1   
    23    10    11 ar  
@<TRIPOS>SUBSTRUCTURE
     1 3PF         1 TEMP              0 ****  ****    0 ROOT
