@<TRIPOS>MOLECULE
3PF
   22    23     1     0     0
SMALL
No Charge or Current Charge


@<TRIPOS>ATOM
      1 CAA          3.1300     1.3290     0.0080 c3         1 3PF       0.091300
      2 OAB          2.7730    -1.4500     0.0950 o          1 3PF      -0.583000
      3 CAC         -3.1600     0.7370    -0.0510 ca         1 3PF      -0.141000
      4 CAD         -3.1580    -0.6680    -0.0050 ca         1 3PF      -0.070000
      5 CAE         -1.9450     1.4450    -0.0590 ca         1 3PF      -0.065000
      6 CAF         -1.9380    -1.3650     0.0340 ca         1 3PF      -0.161000
      7 CAG          0.6040     1.5100    -0.0290 c6         1 3PF       0.156300
      8 NAH          0.5050    -1.3250     0.0630 ns         1 3PF      -0.148000
      9 CAI          1.7620    -0.7610     0.0600 c          1 3PF       0.611000
     10 CAJ         -0.7230     0.7480    -0.0210 ca         1 3PF      -0.148300
     11 CAK         -0.7260    -0.6540     0.0250 ca         1 3PF      -0.002000
     12 NAL          1.8160     0.6510     0.0140 n          1 3PF      -0.404800
     13 HAA          3.6850     1.0700     0.9190 h1         1 3PF       0.044700
     14 HAAA         3.7070     1.0120    -0.8700 h1         1 3PF       0.044700
     15 HAAB         2.9990     2.4190    -0.0290 h1         1 3PF       0.044700
     16 HAC         -4.1040     1.2770    -0.0800 ha         1 3PF       0.118000
     17 HAD         -4.0990    -1.2150     0.0020 ha         1 3PF       0.115000
     18 HAE         -1.9540     2.5330    -0.0950 ha         1 3PF       0.113000
     19 HAF         -1.9370    -2.4520     0.0690 ha         1 3PF       0.119000
     20 HAG          0.6450     2.1320    -0.9340 h1         1 3PF       0.049200
     21 HAGA         0.6230     2.1900     0.8340 h1         1 3PF       0.049200
     22 HNAH         0.4680    -2.3340     0.0960 hn         1 3PF       0.166000
@<TRIPOS>BOND
     1     1    12 1   
     2     1    13 1   
     3     1    14 1   
     4     1    15 1   
     5     2     9 2   
     6     3     4 ar  
     7     3     5 ar  
     8     3    16 1   
     9     4     6 ar  
    10     4    17 1   
    11     5    10 ar  
    12     5    18 1   
    13     6    11 ar  
    14     6    19 1   
    15     7    10 1   
    16     7    12 1   
    17     7    20 1   
    18     7    21 1   
    19     8     9 1   
    20     8    11 1   
    21     8    22 1   
    22     9    12 1   
    23    10    11 ar  
@<TRIPOS>SUBSTRUCTURE
     1 3PF         1 TEMP              0 ****  ****    0 ROOT
