@<TRIPOS>MOLECULE
3PH
  123   122     1     0     0
SMALL
No Charge or Current Charge


@<TRIPOS>ATOM
      1 O13          2.5270    -3.7240    -2.2300 o          1 3PH      -0.925500
      2 P            1.5940    -4.8250    -1.8670 p5         1 3PH       1.269900
      3 O14          0.2700    -4.5720    -2.4960 o          1 3PH      -0.925500
      4 O12          2.1520    -6.1140    -2.3590 o          1 3PH      -0.925500
      5 O11          1.4590    -4.8810    -0.2630 os         1 3PH      -0.566400
      6 C1           0.6230    -5.8740     0.3570 c3         1 3PH       0.238600
      7 C2          -0.5180    -5.2290     1.2150 c3         1 3PH       0.159300
      8 O21         -1.3750    -4.3760     0.4180 os         1 3PH      -0.416100
      9 C21         -2.2020    -4.9470    -0.5150 c          1 3PH       0.609100
     10 O22         -2.4240    -6.1490    -0.5990 o          1 3PH      -0.524000
     11 C22         -3.0500    -3.8900    -1.2280 c3         1 3PH      -0.144400
     12 C23         -4.3150    -3.5350    -0.4110 c3         1 3PH      -0.065400
     13 C24         -5.1950    -2.4650    -1.0940 c3         1 3PH      -0.076400
     14 C25         -6.4580    -2.1120    -0.2780 c3         1 3PH      -0.075400
     15 C26         -7.3380    -1.0420    -0.9610 c3         1 3PH      -0.074400
     16 C27         -8.6010    -0.6880    -0.1450 c3         1 3PH      -0.075400
     17 C28         -9.4810     0.3820    -0.8270 c3         1 3PH      -0.073400
     18 C29        -10.7440     0.7350    -0.0110 c3         1 3PH      -0.075400
     19 C2A        -11.6240     1.8060    -0.6930 c3         1 3PH      -0.073400
     20 C2B        -12.8870     2.1590     0.1230 c3         1 3PH      -0.075400
     21 C2C        -13.7670     3.2290    -0.5590 c3         1 3PH      -0.073400
     22 C2D        -15.0300     3.5820     0.2560 c3         1 3PH      -0.075400
     23 C2E        -15.9100     4.6530    -0.4260 c3         1 3PH      -0.073400
     24 C2F        -17.1730     5.0060     0.3900 c3         1 3PH      -0.074400
     25 C2G        -18.0540     6.0760    -0.2920 c3         1 3PH      -0.075400
     26 C2H        -19.3170     6.4290     0.5240 c3         1 3PH      -0.075400
     27 C2I        -20.1950     7.4970    -0.1560 c3         1 3PH      -0.088100
     28 C3          -0.0350    -4.4320     2.4570 c3         1 3PH       0.180600
     29 O31          0.6950    -3.2580     2.0560 os         1 3PH      -0.357100
     30 C31          1.1630    -2.4270     3.0370 c          1 3PH       0.601100
     31 O32          0.9960    -2.6060     4.2380 o          1 3PH      -0.559000
     32 C32          1.9190    -1.2310     2.4590 c3         1 3PH      -0.149400
     33 C33          3.4480    -1.4670     2.4760 c3         1 3PH      -0.062400
     34 C34          4.2510    -0.2690     1.9210 c3         1 3PH      -0.078400
     35 C35          5.7780    -0.5000     1.9510 c3         1 3PH      -0.074400
     36 C36          6.5810     0.7000     1.4020 c3         1 3PH      -0.074400
     37 C37          8.1080     0.4710     1.4350 c3         1 3PH      -0.075400
     38 C38          8.9110     1.6710     0.8880 c3         1 3PH      -0.073400
     39 C39         10.4380     1.4430     0.9230 c3         1 3PH      -0.075400
     40 C3A         11.2410     2.6430     0.3770 c3         1 3PH      -0.073400
     41 C3B         12.7680     2.4150     0.4120 c3         1 3PH      -0.075400
     42 C3C         13.5720     3.6160    -0.1340 c3         1 3PH      -0.073400
     43 C3D         15.0990     3.3870    -0.0990 c3         1 3PH      -0.074400
     44 C3E         15.9020     4.5880    -0.6450 c3         1 3PH      -0.073400
     45 C3F         17.4290     4.3600    -0.6090 c3         1 3PH      -0.074400
     46 C3G         18.2330     5.5610    -1.1550 c3         1 3PH      -0.075400
     47 C3H         19.7600     5.3330    -1.1190 c3         1 3PH      -0.075400
     48 C3I         20.5620     6.5310    -1.6630 c3         1 3PH      -0.088100
     49 H11          0.1760    -6.5410    -0.3920 h1         1 3PH       0.011200
     50 H12          1.2330    -6.5070     1.0150 h1         1 3PH       0.011200
     51 H2          -1.1150    -6.0590     1.6180 h1         1 3PH       0.026700
     52 H221        -2.4550    -2.9760    -1.3370 hc         1 3PH       0.073200
     53 H222        -3.3510    -4.2740    -2.2090 hc         1 3PH       0.073200
     54 H231        -4.9090    -4.4450    -0.2550 hc         1 3PH       0.047200
     55 H232        -4.0150    -3.1760     0.5810 hc         1 3PH       0.047200
     56 H241        -4.6010    -1.5560    -1.2500 hc         1 3PH       0.036700
     57 H242        -5.4960    -2.8260    -2.0860 hc         1 3PH       0.036700
     58 H251        -7.0520    -3.0210    -0.1230 hc         1 3PH       0.035700
     59 H252        -6.1570    -1.7520     0.7130 hc         1 3PH       0.035700
     60 H261        -6.7440    -0.1330    -1.1160 hc         1 3PH       0.036200
     61 H262        -7.6390    -1.4020    -1.9520 hc         1 3PH       0.036200
     62 H271        -9.1950    -1.5970     0.0110 hc         1 3PH       0.035200
     63 H272        -8.3000    -0.3280     0.8470 hc         1 3PH       0.035200
     64 H281        -8.8870     1.2910    -0.9830 hc         1 3PH       0.036700
     65 H282        -9.7820     0.0220    -1.8190 hc         1 3PH       0.036700
     66 H291       -11.3380    -0.1740     0.1440 hc         1 3PH       0.036200
     67 H292       -10.4430     1.0950     0.9810 hc         1 3PH       0.036200
     68 H2A1       -11.0300     2.7150    -0.8490 hc         1 3PH       0.036700
     69 H2A2       -11.9250     1.4460    -1.6850 hc         1 3PH       0.036700
     70 H2B1       -13.4810     1.2500     0.2780 hc         1 3PH       0.036200
     71 H2B2       -12.5860     2.5190     1.1140 hc         1 3PH       0.036200
     72 H2C1       -13.1730     4.1380    -0.7150 hc         1 3PH       0.036700
     73 H2C2       -14.0680     2.8690    -1.5510 hc         1 3PH       0.036700
     74 H2D1       -15.6240     2.6730     0.4120 hc         1 3PH       0.036200
     75 H2D2       -14.7290     3.9420     1.2480 hc         1 3PH       0.036200
     76 H2E1       -15.3160     5.5620    -0.5810 hc         1 3PH       0.036700
     77 H2E2       -16.2110     4.2930    -1.4180 hc         1 3PH       0.036700
     78 H2F1       -17.7670     4.0960     0.5460 hc         1 3PH       0.036200
     79 H2F2       -16.8720     5.3660     1.3820 hc         1 3PH       0.036200
     80 H2G1       -17.4600     6.9850    -0.4470 hc         1 3PH       0.036200
     81 H2G2       -18.3550     5.7160    -1.2840 hc         1 3PH       0.036200
     82 H2H1       -19.9140     5.5220     0.6790 hc         1 3PH       0.036200
     83 H2H2       -19.0200     6.7910     1.5160 hc         1 3PH       0.036200
     84 H2I1       -19.6350     8.4300    -0.2950 hc         1 3PH       0.029700
     85 H2I2       -20.5380     7.1490    -1.1380 hc         1 3PH       0.029700
     86 H2I3       -21.0770     7.7140     0.4580 hc         1 3PH       0.029700
     87 H31         -0.9130    -4.1490     3.0540 h1         1 3PH       0.028200
     88 H32          0.5960    -5.0830     3.0760 h1         1 3PH       0.028200
     89 H321         1.6140    -1.0850     1.4170 hc         1 3PH       0.096200
     90 H322         1.6860    -0.3430     3.0570 hc         1 3PH       0.096200
     91 H331         3.7700    -1.6690     3.5060 hc         1 3PH       0.038200
     92 H332         3.6810    -2.3630     1.8870 hc         1 3PH       0.038200
     93 H341         3.9360    -0.0710     0.8890 hc         1 3PH       0.045700
     94 H342         4.0110     0.6270     2.5070 hc         1 3PH       0.045700
     95 H351         6.0920    -0.7010     2.9830 hc         1 3PH       0.031200
     96 H352         6.0190    -1.3940     1.3630 hc         1 3PH       0.031200
     97 H361         6.2690     0.9000     0.3700 hc         1 3PH       0.039700
     98 H362         6.3380     1.5940     1.9890 hc         1 3PH       0.039700
     99 H371         8.4190     0.2700     2.4680 hc         1 3PH       0.032700
    100 H372         8.3510    -0.4230     0.8470 hc         1 3PH       0.032700
    101 H381         8.6000     1.8720    -0.1440 hc         1 3PH       0.038200
    102 H382         8.6670     2.5650     1.4760 hc         1 3PH       0.038200
    103 H391        10.7490     1.2410     1.9560 hc         1 3PH       0.034200
    104 H392        10.6820     0.5490     0.3350 hc         1 3PH       0.034200
    105 H3A1        10.9310     2.8440    -0.6560 hc         1 3PH       0.037200
    106 H3A2        10.9970     3.5370     0.9640 hc         1 3PH       0.037200
    107 H3B1        13.0790     2.2140     1.4450 hc         1 3PH       0.035700
    108 H3B2        13.0120     1.5210    -0.1760 hc         1 3PH       0.035700
    109 H3C1        13.2620     3.8170    -1.1670 hc         1 3PH       0.037200
    110 H3C2        13.3280     4.5100     0.4530 hc         1 3PH       0.037200
    111 H3D1        15.4090     3.1860     0.9340 hc         1 3PH       0.036200
    112 H3D2        15.3430     2.4940    -0.6870 hc         1 3PH       0.036200
    113 H3E1        15.5920     4.7890    -1.6780 hc         1 3PH       0.037200
    114 H3E2        15.6580     5.4820    -0.0570 hc         1 3PH       0.037200
    115 H3F1        17.7390     4.1590     0.4240 hc         1 3PH       0.036200
    116 H3F2        17.6740     3.4660    -1.1970 hc         1 3PH       0.036200
    117 H3G1        17.9230     5.7620    -2.1880 hc         1 3PH       0.036700
    118 H3G2        17.9890     6.4550    -0.5670 hc         1 3PH       0.036700
    119 H3H1        20.0740     5.1330    -0.0870 hc         1 3PH       0.036200
    120 H3H2        20.0080     4.4410    -1.7080 hc         1 3PH       0.036200
    121 H3I1        20.2960     6.7340    -2.7070 hc         1 3PH       0.029367
    122 H3I2        20.3620     7.4320    -1.0720 hc         1 3PH       0.029367
    123 H3I3        21.6380     6.3220    -1.6180 hc         1 3PH       0.029367
@<TRIPOS>BOND
     1     1     2 1   
     2     2     3 1   
     3     2     4 1   
     4     2     5 1   
     5     5     6 1   
     6     6     7 1   
     7     6    49 1   
     8     6    50 1   
     9     7     8 1   
    10     7    28 1   
    11     7    51 1   
    12     8     9 1   
    13     9    10 2   
    14     9    11 1   
    15    11    12 1   
    16    11    52 1   
    17    11    53 1   
    18    12    13 1   
    19    12    54 1   
    20    12    55 1   
    21    13    14 1   
    22    13    56 1   
    23    13    57 1   
    24    14    15 1   
    25    14    58 1   
    26    14    59 1   
    27    15    16 1   
    28    15    60 1   
    29    15    61 1   
    30    16    17 1   
    31    16    62 1   
    32    16    63 1   
    33    17    18 1   
    34    17    64 1   
    35    17    65 1   
    36    18    19 1   
    37    18    66 1   
    38    18    67 1   
    39    19    20 1   
    40    19    68 1   
    41    19    69 1   
    42    20    21 1   
    43    20    70 1   
    44    20    71 1   
    45    21    22 1   
    46    21    72 1   
    47    21    73 1   
    48    22    23 1   
    49    22    74 1   
    50    22    75 1   
    51    23    24 1   
    52    23    76 1   
    53    23    77 1   
    54    24    25 1   
    55    24    78 1   
    56    24    79 1   
    57    25    26 1   
    58    25    80 1   
    59    25    81 1   
    60    26    27 1   
    61    26    82 1   
    62    26    83 1   
    63    27    84 1   
    64    27    85 1   
    65    27    86 1   
    66    28    29 1   
    67    28    87 1   
    68    28    88 1   
    69    29    30 1   
    70    30    31 2   
    71    30    32 1   
    72    32    33 1   
    73    32    89 1   
    74    32    90 1   
    75    33    34 1   
    76    33    91 1   
    77    33    92 1   
    78    34    35 1   
    79    34    93 1   
    80    34    94 1   
    81    35    36 1   
    82    35    95 1   
    83    35    96 1   
    84    36    37 1   
    85    36    97 1   
    86    36    98 1   
    87    37    38 1   
    88    37    99 1   
    89    37   100 1   
    90    38    39 1   
    91    38   101 1   
    92    38   102 1   
    93    39    40 1   
    94    39   103 1   
    95    39   104 1   
    96    40    41 1   
    97    40   105 1   
    98    40   106 1   
    99    41    42 1   
   100    41   107 1   
   101    41   108 1   
   102    42    43 1   
   103    42   109 1   
   104    42   110 1   
   105    43    44 1   
   106    43   111 1   
   107    43   112 1   
   108    44    45 1   
   109    44   113 1   
   110    44   114 1   
   111    45    46 1   
   112    45   115 1   
   113    45   116 1   
   114    46    47 1   
   115    46   117 1   
   116    46   118 1   
   117    47    48 1   
   118    47   119 1   
   119    47   120 1   
   120    48   121 1   
   121    48   122 1   
   122    48   123 1   
@<TRIPOS>SUBSTRUCTURE
     1 3PH         1 TEMP              0 ****  ****    0 ROOT
