@<TRIPOS>MOLECULE
3PH
  123   122     1     0     0
SMALL
bcc


@<TRIPOS>ATOM
      1 O13          1.2390    -4.8880    -2.9610 o          1 3PH      -0.925500
      2 P            0.5920    -6.0320    -2.1920 p5         1 3PH       1.269900
      3 O14         -0.7650    -6.4820    -2.7270 o          1 3PH      -0.925500
      4 O12          1.5270    -7.1830    -1.8340 o          1 3PH      -0.925500
      5 O11          0.2420    -5.2670    -0.7110 os         1 3PH      -0.543200
      6 C1          -0.4160    -6.0190     0.2480 c3         1 3PH       0.215400
      7 C2          -0.7160    -5.2020     1.4950 c3         1 3PH       0.136100
      8 O21         -1.4830    -4.0320     1.1760 os         1 3PH      -0.392900
      9 C21         -2.8050    -4.1320     1.0890 c          1 3PH       0.658100
     10 O22         -3.4160    -5.1500     1.3050 o          1 3PH      -0.573000
     11 C22         -3.4330    -2.8270     0.6790 c3         1 3PH      -0.144400
     12 C23         -4.9470    -2.8200     0.8100 c3         1 3PH      -0.065400
     13 C24         -5.5640    -1.4980     0.3700 c3         1 3PH      -0.076400
     14 C25         -7.0790    -1.4890     0.5290 c3         1 3PH      -0.075400
     15 C26         -7.7370    -0.1850     0.0960 c3         1 3PH      -0.074400
     16 C27         -9.2480    -0.1990     0.2950 c3         1 3PH      -0.075400
     17 C28         -9.9380     1.0960    -0.1150 c3         1 3PH      -0.073400
     18 C29        -11.4440     1.0560     0.1150 c3         1 3PH      -0.075400
     19 C2A        -12.1590     2.3460    -0.2650 c3         1 3PH      -0.073400
     20 C2B        -13.6610     2.2870    -0.0110 c3         1 3PH      -0.075400
     21 C2C        -14.3930     3.5740    -0.3680 c3         1 3PH      -0.073400
     22 C2D        -15.8920     3.5000    -0.0990 c3         1 3PH      -0.075400
     23 C2E        -16.6360     4.7840    -0.4410 c3         1 3PH      -0.073400
     24 C2F        -18.1310     4.7020    -0.1610 c3         1 3PH      -0.074400
     25 C2G        -18.8810     5.9840    -0.4980 c3         1 3PH      -0.075400
     26 C2H        -20.3750     5.9020    -0.2110 c3         1 3PH      -0.075400
     27 C2I        -21.1160     7.1870    -0.5530 c3         1 3PH      -0.088100
     28 C3           0.4880    -4.7500     2.2890 c3         1 3PH       0.157400
     29 O31          1.2920    -3.8660     1.5140 os         1 3PH      -0.333900
     30 C31          2.4810    -3.5320     1.9960 c          1 3PH       0.650100
     31 O32          2.8880    -3.9020     3.0710 o          1 3PH      -0.608000
     32 C32          3.2450    -2.6630     1.0340 c3         1 3PH      -0.149400
     33 C33          4.6060    -2.2400     1.5600 c3         1 3PH      -0.062400
     34 C34          5.3990    -1.4160     0.5530 c3         1 3PH      -0.078400
     35 C35          6.7580    -1.0000     1.1030 c3         1 3PH      -0.074400
     36 C36          7.6010    -0.1800     0.1370 c3         1 3PH      -0.074400
     37 C37          8.9460     0.2140     0.7360 c3         1 3PH      -0.075400
     38 C38          9.8250     1.0490    -0.1850 c3         1 3PH      -0.073400
     39 C39         11.1530     1.4220     0.4640 c3         1 3PH      -0.075400
     40 C3A         12.0620     2.2710    -0.4140 c3         1 3PH      -0.073400
     41 C3B         13.3730     2.6270     0.2760 c3         1 3PH      -0.075400
     42 C3C         14.3070     3.4830    -0.5700 c3         1 3PH      -0.073400
     43 C3D         15.6070     3.8250     0.1490 c3         1 3PH      -0.074400
     44 C3E         16.5570     4.6820    -0.6750 c3         1 3PH      -0.073400
     45 C3F         17.8510     5.0120     0.0590 c3         1 3PH      -0.074400
     46 C3G         18.8100     5.8700    -0.7540 c3         1 3PH      -0.075400
     47 C3H         20.1050     6.1920    -0.0170 c3         1 3PH      -0.075400
     48 C3I         21.0560     7.0500    -0.8400 c3         1 3PH      -0.088100
     49 H11         -1.3660    -6.4230    -0.1300 h1         1 3PH       0.011200
     50 H12          0.1700    -6.8910     0.5800 h1         1 3PH       0.011200
     51 H2          -1.2830    -5.8460     2.1750 h1         1 3PH       0.026700
     52 H221        -2.9880    -2.0180     1.2650 hc         1 3PH       0.073200
     53 H222        -3.1390    -2.6320    -0.3590 hc         1 3PH       0.073200
     54 H231        -5.3760    -3.6310     0.2160 hc         1 3PH       0.047200
     55 H232        -5.2260    -3.0190     1.8490 hc         1 3PH       0.047200
     56 H241        -5.1300    -0.6760     0.9500 hc         1 3PH       0.036700
     57 H242        -5.3040    -1.3010    -0.6760 hc         1 3PH       0.036700
     58 H251        -7.5080    -2.3180    -0.0440 hc         1 3PH       0.035700
     59 H252        -7.3300    -1.6870     1.5770 hc         1 3PH       0.035700
     60 H261        -7.3030     0.6480     0.6590 hc         1 3PH       0.036200
     61 H262        -7.5090     0.0090    -0.9580 hc         1 3PH       0.036200
     62 H271        -9.6800    -1.0330    -0.2700 hc         1 3PH       0.035200
     63 H272        -9.4670    -0.4060     1.3490 hc         1 3PH       0.035200
     64 H281        -9.5050     1.9320     0.4460 hc         1 3PH       0.036700
     65 H282        -9.7350     1.3020    -1.1710 hc         1 3PH       0.036700
     66 H291       -11.8750     0.2230    -0.4510 hc         1 3PH       0.036200
     67 H292       -11.6390     0.8340     1.1700 hc         1 3PH       0.036200
     68 H2A1       -11.7280     3.1810     0.2980 hc         1 3PH       0.036700
     69 H2A2       -11.9770     2.5700    -1.3220 hc         1 3PH       0.036700
     70 H2B1       -14.0910     1.4550    -0.5810 hc         1 3PH       0.036200
     71 H2B2       -13.8370     2.0500     1.0440 hc         1 3PH       0.036200
     72 H2C1       -13.9630     4.4060     0.2000 hc         1 3PH       0.036700
     73 H2C2       -14.2260     3.8100    -1.4240 hc         1 3PH       0.036700
     74 H2D1       -16.3220     2.6680    -0.6680 hc         1 3PH       0.036200
     75 H2D2       -16.0550     3.2560     0.9570 hc         1 3PH       0.036200
     76 H2E1       -16.2050     5.6160     0.1270 hc         1 3PH       0.036700
     77 H2E2       -16.4770     5.0270    -1.4970 hc         1 3PH       0.036700
     78 H2F1       -18.5620     3.8700    -0.7310 hc         1 3PH       0.036200
     79 H2F2       -18.2880     4.4560     0.8950 hc         1 3PH       0.036200
     80 H2G1       -18.4490     6.8170     0.0690 hc         1 3PH       0.036200
     81 H2G2       -18.7290     6.2290    -1.5550 hc         1 3PH       0.036200
     82 H2H1       -20.8050     5.0680    -0.7760 hc         1 3PH       0.036200
     83 H2H2       -20.5270     5.6600     0.8450 hc         1 3PH       0.036200
     84 H2I1       -20.7190     8.0320     0.0130 hc         1 3PH       0.029700
     85 H2I2       -21.0180     7.4280    -1.6130 hc         1 3PH       0.029700
     86 H2I3       -22.1810     7.1100    -0.3290 hc         1 3PH       0.029700
     87 H31          0.1640    -4.2510     3.2070 h1         1 3PH       0.028200
     88 H32          1.0550    -5.6380     2.5790 h1         1 3PH       0.028200
     89 H321         3.3460    -3.2140     0.0930 hc         1 3PH       0.096200
     90 H322         2.6330    -1.7880     0.7920 hc         1 3PH       0.096200
     91 H331         4.4840    -1.6600     2.4790 hc         1 3PH       0.038200
     92 H332         5.1860    -3.1260     1.8320 hc         1 3PH       0.038200
     93 H341         5.5370    -1.9940    -0.3680 hc         1 3PH       0.045700
     94 H342         4.8300    -0.5240     0.2700 hc         1 3PH       0.045700
     95 H351         6.6100    -0.4270     2.0260 hc         1 3PH       0.031200
     96 H352         7.3150    -1.8970     1.3960 hc         1 3PH       0.031200
     97 H361         7.7630    -0.7490    -0.7850 hc         1 3PH       0.039700
     98 H362         7.0530     0.7220    -0.1560 hc         1 3PH       0.039700
     99 H371         8.7740     0.7680     1.6660 hc         1 3PH       0.032700
    100 H372         9.4880    -0.6930     1.0270 hc         1 3PH       0.032700
    101 H381        10.0130     0.4990    -1.1140 hc         1 3PH       0.038200
    102 H382         9.2910     1.9610    -0.4750 hc         1 3PH       0.038200
    103 H391        10.9550     1.9580     1.3990 hc         1 3PH       0.034200
    104 H392        11.6820     0.5060     0.7510 hc         1 3PH       0.034200
    105 H3A1        12.2730     1.7390    -1.3480 hc         1 3PH       0.037200
    106 H3A2        11.5400     3.1910    -0.7020 hc         1 3PH       0.037200
    107 H3B1        13.1540     3.1510     1.2130 hc         1 3PH       0.035700
    108 H3B2        13.8900     1.7040     0.5630 hc         1 3PH       0.035700
    109 H3C1        14.5350     2.9620    -1.5060 hc         1 3PH       0.037200
    110 H3C2        13.7950     4.4090    -0.8570 hc         1 3PH       0.037200
    111 H3D1        15.3740     4.3420     1.0870 hc         1 3PH       0.036200
    112 H3D2        16.1140     2.8970     0.4370 hc         1 3PH       0.036200
    113 H3E1        16.7930     4.1670    -1.6130 hc         1 3PH       0.037200
    114 H3E2        16.0550     5.6130    -0.9620 hc         1 3PH       0.037200
    115 H3F1        17.6130     5.5240     0.9980 hc         1 3PH       0.036200
    116 H3F2        18.3520     4.0800     0.3450 hc         1 3PH       0.036200
    117 H3G1        19.0470     5.3600    -1.6950 hc         1 3PH       0.036700
    118 H3G2        18.3120     6.8050    -1.0370 hc         1 3PH       0.036700
    119 H3H1        19.8680     6.7020     0.9220 hc         1 3PH       0.036200
    120 H3H2        20.6010     5.2580     0.2640 hc         1 3PH       0.036200
    121 H3I1        21.3270     6.5530    -1.7730 hc         1 3PH       0.029367
    122 H3I2        20.5970     8.0060    -1.1000 hc         1 3PH       0.029367
    123 H3I3        21.9780     7.2630    -0.2980 hc         1 3PH       0.029367
@<TRIPOS>BOND
     1     1     2 1   
     2     2     3 1   
     3     2     4 1   
     4     2     5 1   
     5     5     6 1   
     6     6     7 1   
     7     6    49 1   
     8     6    50 1   
     9     7     8 1   
    10     7    28 1   
    11     7    51 1   
    12     8     9 1   
    13     9    10 2   
    14     9    11 1   
    15    11    12 1   
    16    11    52 1   
    17    11    53 1   
    18    12    13 1   
    19    12    54 1   
    20    12    55 1   
    21    13    14 1   
    22    13    56 1   
    23    13    57 1   
    24    14    15 1   
    25    14    58 1   
    26    14    59 1   
    27    15    16 1   
    28    15    60 1   
    29    15    61 1   
    30    16    17 1   
    31    16    62 1   
    32    16    63 1   
    33    17    18 1   
    34    17    64 1   
    35    17    65 1   
    36    18    19 1   
    37    18    66 1   
    38    18    67 1   
    39    19    20 1   
    40    19    68 1   
    41    19    69 1   
    42    20    21 1   
    43    20    70 1   
    44    20    71 1   
    45    21    22 1   
    46    21    72 1   
    47    21    73 1   
    48    22    23 1   
    49    22    74 1   
    50    22    75 1   
    51    23    24 1   
    52    23    76 1   
    53    23    77 1   
    54    24    25 1   
    55    24    78 1   
    56    24    79 1   
    57    25    26 1   
    58    25    80 1   
    59    25    81 1   
    60    26    27 1   
    61    26    82 1   
    62    26    83 1   
    63    27    84 1   
    64    27    85 1   
    65    27    86 1   
    66    28    29 1   
    67    28    87 1   
    68    28    88 1   
    69    29    30 1   
    70    30    31 2   
    71    30    32 1   
    72    32    33 1   
    73    32    89 1   
    74    32    90 1   
    75    33    34 1   
    76    33    91 1   
    77    33    92 1   
    78    34    35 1   
    79    34    93 1   
    80    34    94 1   
    81    35    36 1   
    82    35    95 1   
    83    35    96 1   
    84    36    37 1   
    85    36    97 1   
    86    36    98 1   
    87    37    38 1   
    88    37    99 1   
    89    37   100 1   
    90    38    39 1   
    91    38   101 1   
    92    38   102 1   
    93    39    40 1   
    94    39   103 1   
    95    39   104 1   
    96    40    41 1   
    97    40   105 1   
    98    40   106 1   
    99    41    42 1   
   100    41   107 1   
   101    41   108 1   
   102    42    43 1   
   103    42   109 1   
   104    42   110 1   
   105    43    44 1   
   106    43   111 1   
   107    43   112 1   
   108    44    45 1   
   109    44   113 1   
   110    44   114 1   
   111    45    46 1   
   112    45   115 1   
   113    45   116 1   
   114    46    47 1   
   115    46   117 1   
   116    46   118 1   
   117    47    48 1   
   118    47   119 1   
   119    47   120 1   
   120    48   121 1   
   121    48   122 1   
   122    48   123 1   
@<TRIPOS>SUBSTRUCTURE
     1 3PH         1 TEMP              0 ****  ****    0 ROOT
