@<TRIPOS>MOLECULE
3PI
   69    69     1     0     0
SMALL
No Charge or Current Charge


@<TRIPOS>ATOM
      1 C1          -1.8210    -0.1200    -1.3980 c6         1 3PI       0.209300
      2 C2          -1.4950    -1.5480    -0.8360 c6         1 3PI       0.149300
      3 C3          -0.7240    -1.4750     0.5400 c6         1 3PI       0.186800
      4 C4          -1.5180    -0.5710     1.5510 c6         1 3PI       0.178300
      5 C5          -1.7640     0.8510     0.9700 c6         1 3PI       0.186800
      6 C6          -2.5910     0.7640    -0.3560 c6         1 3PI       0.149300
      7 O1          -0.6400     0.5590    -1.9050 os         1 3PI      -0.594400
      8 O2          -2.6870    -2.3520    -0.7110 oh         1 3PI      -0.775500
      9 O3          -0.4220    -2.7680     1.1570 os         1 3PI      -0.609900
     10 O4          -0.8740    -0.4390     2.8370 oh         1 3PI      -0.715000
     11 O5          -2.3870     1.6830     1.9830 os         1 3PI      -0.609900
     12 O6          -2.9340     2.0650    -0.8970 oh         1 3PI      -0.775500
     13 P1          -0.2290     0.3890    -3.4610 p5         1 3PI       1.428800
     14 O11          0.6110     1.5210    -3.9510 o          1 3PI      -0.862000
     15 O12         -1.4250     0.2290    -4.3420 o          1 3PI      -0.862000
     16 O13          0.6010    -0.9920    -3.3860 os         1 3PI      -0.580400
     17 P3          -0.2050    -4.1430     0.3480 p5         1 3PI       1.303400
     18 O31         -1.4960    -4.5400    -0.2800 o          1 3PI      -0.932667
     19 O32          0.8490    -3.9590    -0.6830 o          1 3PI      -0.932667
     20 O33          0.2170    -5.2000     1.3060 o          1 3PI      -0.932667
     21 P5          -2.0140     3.2420     2.0830 p5         1 3PI       1.303400
     22 O51         -0.6030     3.3860     2.5240 o          1 3PI      -0.932667
     23 O52         -2.2130     3.8550     0.7450 o          1 3PI      -0.932667
     24 O53         -2.9160     3.8890     3.0720 o          1 3PI      -0.932667
     25 C7           2.0290    -1.0560    -3.2190 c3         1 3PI       0.275600
     26 C8           2.4970    -0.6540    -1.7910 c3         1 3PI       0.126300
     27 C9           3.9520    -1.1420    -1.5510 c3         1 3PI       0.150600
     28 C10          5.6340    -1.3400     0.1840 c3         1 3PI       0.385300
     29 C11          5.7570    -1.1420     1.7090 c3         1 3PI      -0.116400
     30 C12          7.0650    -1.7040     2.3170 c3         1 3PI      -0.067400
     31 C13          7.1410    -1.5330     3.8460 c3         1 3PI      -0.086100
     32 C15          2.3420     2.9050    -0.5510 c3         1 3PI      -0.141400
     33 C16          3.7610     3.3970    -0.1840 c3         1 3PI      -0.064400
     34 C17          3.9110     4.9280    -0.2720 c3         1 3PI      -0.080100
     35 O14          2.4760     0.7940    -1.6820 os         1 3PI      -0.452100
     36 O15          4.3320    -0.8890    -0.1860 os         1 3PI      -0.426000
     37 O16          6.6110    -0.5560    -0.4870 oh         1 3PI      -0.717000
     38 O17          2.0130     0.7810     0.5730 o          1 3PI      -0.457000
     39 H1          -2.5180    -0.2690    -2.2330 h1         1 3PI       0.031700
     40 H2          -0.8340    -2.0320    -1.5660 h1         1 3PI       0.033200
     41 H3           0.2360    -0.9820     0.3490 h1         1 3PI       0.033700
     42 H4          -2.5040    -1.0330     1.7030 h1         1 3PI       0.025700
     43 H5          -0.7820     1.2840     0.7250 h1         1 3PI       0.033700
     44 H6          -3.5250     0.2350    -0.1140 h1         1 3PI       0.033200
     45 HO2         -2.3060    -3.2800    -0.5250 ho         1 3PI       0.520500
     46 HO4         -1.1690     0.4510     3.1440 ho         1 3PI       0.481000
     47 HO6         -2.6270     2.7530    -0.2110 ho         1 3PI       0.520500
     48 H71          2.5340    -0.4260    -3.9630 h1         1 3PI      -0.010800
     49 H72          2.3520    -2.0870    -3.4110 h1         1 3PI      -0.010800
     50 H8           1.8340    -1.1500    -1.0710 h1         1 3PI       0.184700
     51 H91          4.6240    -0.6260    -2.2480 h1         1 3PI       0.005200
     52 H92          4.0090    -2.2190    -1.7600 h1         1 3PI       0.005200
     53 H10          5.7750    -2.3990    -0.0670 h2         1 3PI       0.046700
     54 H121         7.9290    -1.2030     1.8630 hc         1 3PI       0.021200
     55 H122         7.1490    -2.7700     2.0730 hc         1 3PI       0.021200
     56 H131         7.0930    -0.4720     4.1210 hc         1 3PI       0.020367
     57 H132         6.3110    -2.0570     4.3370 hc         1 3PI       0.020367
     58 H133         8.0810    -1.9450     4.2300 hc         1 3PI       0.020367
     59 H151         2.1390     3.2150    -1.5830 hc         1 3PI       0.083200
     60 H152         1.6150     3.3480     0.1380 hc         1 3PI       0.083200
     61 H161         4.0070     3.0710     0.8340 hc         1 3PI       0.051700
     62 H162         4.4930     2.9280    -0.8540 hc         1 3PI       0.051700
     63 H171         4.9310     5.2280    -0.0020 hc         1 3PI       0.021367
     64 H172         3.7080     5.2800    -1.2900 hc         1 3PI       0.021367
     65 H173         3.2150     5.4260     0.4130 hc         1 3PI       0.021367
     66 H16          6.2990     0.3670    -0.3910 ho         1 3PI       0.433000
     67 C14          2.2520     1.3820    -0.4640 c          1 3PI       0.596100
     68 H111         4.9050    -1.6390     2.1880 hc         1 3PI       0.079200
     69 H112         5.6710    -0.0740     1.9450 hc         1 3PI       0.079200
@<TRIPOS>BOND
     1     1     2 1   
     2     1     6 1   
     3     1     7 1   
     4     1    39 1   
     5     2     3 1   
     6     2     8 1   
     7     2    40 1   
     8     3     4 1   
     9     3     9 1   
    10     3    41 1   
    11     4     5 1   
    12     4    10 1   
    13     4    42 1   
    14     5     6 1   
    15     5    11 1   
    16     5    43 1   
    17     6    12 1   
    18     6    44 1   
    19     7    13 1   
    20     8    45 1   
    21     9    17 1   
    22    10    46 1   
    23    11    21 1   
    24    12    47 1   
    25    13    14 1   
    26    13    15 1   
    27    13    16 1   
    28    16    25 1   
    29    17    18 1   
    30    17    19 1   
    31    17    20 1   
    32    21    22 1   
    33    21    23 1   
    34    21    24 1   
    35    25    26 1   
    36    25    48 1   
    37    25    49 1   
    38    26    27 1   
    39    26    35 1   
    40    26    50 1   
    41    27    36 1   
    42    27    51 1   
    43    27    52 1   
    44    28    29 1   
    45    28    36 1   
    46    28    37 1   
    47    28    53 1   
    48    29    30 1   
    49    29    68 1   
    50    29    69 1   
    51    30    31 1   
    52    30    54 1   
    53    30    55 1   
    54    31    56 1   
    55    31    57 1   
    56    31    58 1   
    57    32    33 1   
    58    32    59 1   
    59    32    60 1   
    60    32    67 1   
    61    33    34 1   
    62    33    61 1   
    63    33    62 1   
    64    34    63 1   
    65    34    64 1   
    66    34    65 1   
    67    35    67 1   
    68    37    66 1   
    69    38    67 2   
@<TRIPOS>SUBSTRUCTURE
     1 3PI         1 TEMP              0 ****  ****    0 ROOT
