@<TRIPOS>MOLECULE
3PI
   69    69     1     0     0
SMALL
bcc


@<TRIPOS>ATOM
      1 C1          -1.8020     0.0130    -1.4920 c6         1 3PI       0.186100
      2 C2          -1.5340    -1.2380    -0.6490 c6         1 3PI       0.126100
      3 C3          -0.8690    -0.9090     0.6960 c6         1 3PI       0.163600
      4 C4          -1.6560     0.1400     1.4750 c6         1 3PI       0.155100
      5 C5          -1.9210     1.3650     0.6210 c6         1 3PI       0.163600
      6 C6          -2.5880     1.0580    -0.7060 c6         1 3PI       0.126100
      7 O1          -0.5820     0.5870    -1.9420 os         1 3PI      -0.571200
      8 O2          -2.7390    -1.9430    -0.4730 oh         1 3PI      -0.713300
      9 O3          -0.7410    -2.0330     1.5410 os         1 3PI      -0.586700
     10 O4          -0.9700     0.5180     2.6520 oh         1 3PI      -0.652800
     11 O5          -2.7480     2.2540     1.3430 os         1 3PI      -0.586700
     12 O6          -2.7750     2.2350    -1.4490 oh         1 3PI      -0.713300
     13 P1           0.0210     0.2370    -3.4210 p5         1 3PI       1.428800
     14 O11          0.9760     1.3270    -3.7900 o          1 3PI      -0.862000
     15 O12         -1.0990    -0.1490    -4.3410 o          1 3PI      -0.862000
     16 O13          0.8310    -1.1720    -3.1360 os         1 3PI      -0.557200
     17 P3          -0.3280    -3.5740     1.0000 p5         1 3PI       1.303400
     18 O31         -1.5960    -4.0590     0.2500 o          1 3PI      -0.932667
     19 O32          0.8930    -3.4320     0.1030 o          1 3PI      -0.932667
     20 O33         -0.1000    -4.3090     2.3100 o          1 3PI      -0.932667
     21 P5          -2.0530     3.7670     1.6250 p5         1 3PI       1.303400
     22 O51         -0.8350     3.4420     2.5010 o          1 3PI      -0.932667
     23 O52         -1.7300     4.2740     0.2070 o          1 3PI      -0.932667
     24 O53         -3.1600     4.5290     2.3310 o          1 3PI      -0.932667
     25 C7           2.2260    -1.2900    -3.0330 c3         1 3PI       0.252400
     26 C8           2.7890    -0.9990    -1.6490 c3         1 3PI       0.103100
     27 C9           4.2370    -1.4600    -1.6210 c3         1 3PI       0.127400
     28 C10          6.1100    -1.6750    -0.2010 c3         1 3PI       0.338900
     29 C11          6.4650    -1.4750     1.2620 c3         1 3PI      -0.116400
     30 C12          7.8310    -2.0330     1.6370 c3         1 3PI      -0.067400
     31 C13          8.1180    -1.8970     3.1260 c3         1 3PI      -0.086100
     32 C15          2.1590     2.4140    -0.3840 c3         1 3PI      -0.141400
     33 C16          2.2440     3.1590     0.9400 c3         1 3PI      -0.064400
     34 C17          1.9130     4.6330     0.7740 c3         1 3PI      -0.080100
     35 O14          2.7170     0.4170    -1.4670 os         1 3PI      -0.428900
     36 O15          4.8290    -1.1460    -0.3860 os         1 3PI      -0.379600
     37 O16          7.0510    -1.1130    -1.0730 oh         1 3PI      -0.654800
     38 O17          2.4180     0.3130     0.7500 o          1 3PI      -0.506000
     39 H1          -2.4020    -0.2960    -2.3540 h1         1 3PI       0.031700
     40 H2          -0.8170    -1.8500    -1.2090 h1         1 3PI       0.033200
     41 H3           0.1190    -0.4980     0.4690 h1         1 3PI       0.033700
     42 H4          -2.6260    -0.3050     1.7510 h1         1 3PI       0.025700
     43 H5          -0.9440     1.8220     0.4020 h1         1 3PI       0.033700
     44 H6          -3.5700     0.6070    -0.4900 h1         1 3PI       0.033200
     45 HO2         -2.4090    -2.8530    -0.1890 ho         1 3PI       0.481500
     46 HO4         -0.8540     1.4900     2.6440 ho         1 3PI       0.442000
     47 HO6         -2.3720     2.9790    -0.9480 ho         1 3PI       0.481500
     48 H71          2.7350    -0.6580    -3.7680 h1         1 3PI      -0.010800
     49 H72          2.4690    -2.3270    -3.2800 h1         1 3PI      -0.010800
     50 H8           2.2000    -1.5230    -0.8900 h1         1 3PI       0.184700
     51 H91          4.7830    -0.9970    -2.4540 h1         1 3PI       0.005200
     52 H92          4.2570    -2.5450    -1.7940 h1         1 3PI       0.005200
     53 H10          6.1120    -2.7480    -0.4460 h2         1 3PI       0.046700
     54 H121         8.6130    -1.5220     1.0700 hc         1 3PI       0.021200
     55 H122         7.8880    -3.0880     1.3520 hc         1 3PI       0.021200
     56 H131         8.0760    -0.8530     3.4440 hc         1 3PI       0.020367
     57 H132         7.3910    -2.4510     3.7220 hc         1 3PI       0.020367
     58 H133         9.1080    -2.2790     3.3760 hc         1 3PI       0.020367
     59 H151         2.8110     2.8630    -1.1380 hc         1 3PI       0.083200
     60 H152         1.1430     2.4970    -0.7850 hc         1 3PI       0.083200
     61 H161         1.5270     2.7300     1.6410 hc         1 3PI       0.051700
     62 H162         3.2440     3.0400     1.3690 hc         1 3PI       0.051700
     63 H171         2.0380     5.1710     1.7150 hc         1 3PI       0.021367
     64 H172         2.5560     5.1130     0.0330 hc         1 3PI       0.021367
     65 H173         0.8720     4.7460     0.4670 hc         1 3PI       0.021367
     66 H16          7.2200    -0.2010    -0.8060 ho         1 3PI       0.394000
     67 C14          2.4530     0.9420    -0.2750 c          1 3PI       0.645100
     68 H111         5.6950    -1.9580     1.8700 hc         1 3PI       0.079200
     69 H112         6.4200    -0.4050     1.4990 hc         1 3PI       0.079200
@<TRIPOS>BOND
     1     1     2 1   
     2     1     6 1   
     3     1     7 1   
     4     1    39 1   
     5     2     3 1   
     6     2     8 1   
     7     2    40 1   
     8     3     4 1   
     9     3     9 1   
    10     3    41 1   
    11     4     5 1   
    12     4    10 1   
    13     4    42 1   
    14     5     6 1   
    15     5    11 1   
    16     5    43 1   
    17     6    12 1   
    18     6    44 1   
    19     7    13 1   
    20     8    45 1   
    21     9    17 1   
    22    10    46 1   
    23    11    21 1   
    24    12    47 1   
    25    13    14 1   
    26    13    15 1   
    27    13    16 1   
    28    16    25 1   
    29    17    18 1   
    30    17    19 1   
    31    17    20 1   
    32    21    22 1   
    33    21    23 1   
    34    21    24 1   
    35    25    26 1   
    36    25    48 1   
    37    25    49 1   
    38    26    27 1   
    39    26    35 1   
    40    26    50 1   
    41    27    36 1   
    42    27    51 1   
    43    27    52 1   
    44    28    29 1   
    45    28    36 1   
    46    28    37 1   
    47    28    53 1   
    48    29    30 1   
    49    29    68 1   
    50    29    69 1   
    51    30    31 1   
    52    30    54 1   
    53    30    55 1   
    54    31    56 1   
    55    31    57 1   
    56    31    58 1   
    57    32    33 1   
    58    32    59 1   
    59    32    60 1   
    60    32    67 1   
    61    33    34 1   
    62    33    61 1   
    63    33    62 1   
    64    34    63 1   
    65    34    64 1   
    66    34    65 1   
    67    35    67 1   
    68    37    66 1   
    69    38    67 2   
@<TRIPOS>SUBSTRUCTURE
     1 3PI         1 TEMP              0 ****  ****    0 ROOT
