@<TRIPOS>MOLECULE
3PJ
   69    72     1     0     0
SMALL
No Charge or Current Charge


@<TRIPOS>ATOM
      1 N1         -52.9420     2.9740     1.2730 nt         1 3PJ      -0.610000
      2 C2         -46.1580    12.8830     2.5860 ca         1 3PJ      -0.088500
      3 C4         -46.3980    10.7180     1.4670 ca         1 3PJ      -0.121600
      4 C5         -45.8860    10.0940     2.6240 ca         1 3PJ      -0.081500
      5 C6         -45.5310    10.8520     3.7520 ca         1 3PJ      -0.088500
      6 C8         -46.4390    12.9900     6.0870 c3         1 3PJ       0.300000
      7 C10        -52.2260     5.3120     1.3570 c3         1 3PJ      -0.155400
      8 O10        -44.0740    12.5010     5.5690 oh         1 3PJ      -0.643000
      9 C12        -52.4200     4.0080     0.5800 c          1 3PJ       0.596100
     10 N12        -47.1790     8.5760     0.3930 n          1 3PJ      -0.377800
     11 O13        -46.6470    10.4150    -0.8840 o          1 3PJ      -0.584100
     12 C14        -48.1940     8.2380     1.4430 c6         1 3PJ       0.119700
     13 C15        -47.0790     7.6330    -0.7310 cx         1 3PJ       0.029700
     14 C16        -49.6430     8.2680     0.8940 c6         1 3PJ      -0.087400
     15 C17        -50.6670     8.0350     2.0360 c6         1 3PJ      -0.066900
     16 C18        -50.4660     6.6780     2.8080 c6         1 3PJ       0.002300
     17 C19        -48.9700     6.6380     3.2860 c6         1 3PJ      -0.066900
     18 C20        -47.9370     6.8830     2.1520 c6         1 3PJ      -0.087400
     19 F21        -46.6920    11.7130     6.4620 f          1 3PJ      -0.108000
     20 F22        -47.5910    13.5020     5.5900 f          1 3PJ      -0.108000
     21 F23        -46.1360    13.6870     7.2090 f          1 3PJ      -0.108000
     22 C24        -45.8100     7.4630    -1.5360 cx         1 3PJ      -0.122900
     23 C25        -46.3010     6.3380    -0.6650 cx         1 3PJ      -0.122900
     24 C26        -51.3940     6.5600     4.0610 ca         1 3PJ      -0.072300
     25 C27        -51.2480     5.4580     4.9390 ca         1 3PJ      -0.111000
     26 C28        -52.0730     5.3110     6.0670 ca         1 3PJ      -0.109500
     27 C29        -53.0660     6.2610     6.3410 ca         1 3PJ      -0.111000
     28 C30        -53.2360     7.3550     5.4810 ca         1 3PJ      -0.109500
     29 C32        -50.7660     5.4460     1.8710 c3         1 3PJ      -0.057400
     30 OAI        -52.1290     3.8780    -0.5960 o          1 3PJ      -0.616100
     31 CAV        -46.5110    12.1230     1.4580 ca         1 3PJ      -0.081500
     32 CAW        -52.4130     7.5040     4.3510 ca         1 3PJ      -0.111000
     33 CBU        -44.9210    14.5470     4.7050 c3         1 3PJ      -0.124100
     34 CBV        -45.6570    12.2610     3.7550 ca         1 3PJ      -0.122300
     35 CBW        -46.7790     9.9250     0.2320 c          1 3PJ       0.602700
     36 CBZ        -45.2780    13.0680     5.0220 c3         1 3PJ       0.177300
     37 HN1        -53.0900     2.0910     0.8070 hn         1 3PJ       0.314000
     38 HN1A       -53.1790     3.0870     2.2480 hn         1 3PJ       0.314000
     39 H2         -46.2890    13.9600     2.5330 ha         1 3PJ       0.126000
     40 H5         -45.7470     9.0160     2.6530 ha         1 3PJ       0.127000
     41 H6         -45.1550    10.3320     4.6300 ha         1 3PJ       0.126000
     42 H10        -52.4560     6.1530     0.6930 hc         1 3PJ       0.059200
     43 H10A       -52.8960     5.3160     2.2250 hc         1 3PJ       0.059200
     44 HO10       -43.4480    12.4010     4.8200 ho         1 3PJ       0.462000
     45 H14        -48.1560     9.0100     2.2230 h1         1 3PJ       0.059700
     46 H15        -48.0140     7.6520    -1.2920 h1         1 3PJ       0.077700
     47 H16        -49.8370     9.2440     0.4300 hc         1 3PJ       0.052200
     48 H16A       -49.7830     7.5210     0.1030 hc         1 3PJ       0.052200
     49 H17        -50.5730     8.8710     2.7440 hc         1 3PJ       0.047200
     50 H17A       -51.6820     8.1030     1.6240 hc         1 3PJ       0.047200
     51 H19        -48.8220     7.3950     4.0690 hc         1 3PJ       0.047200
     52 H19A       -48.7380     5.6750     3.7580 hc         1 3PJ       0.047200
     53 H20        -47.9750     6.0530     1.4380 hc         1 3PJ       0.052200
     54 H20A       -46.9240     6.8750     2.5770 hc         1 3PJ       0.052200
     55 H24        -45.9080     7.3530    -2.6130 hc         1 3PJ       0.079450
     56 H24A       -44.9230     8.0010    -1.2110 hc         1 3PJ       0.079450
     57 H25        -45.7370     6.1240     0.2400 hc         1 3PJ       0.079450
     58 H25A       -46.7330     5.4670    -1.1510 hc         1 3PJ       0.079450
     59 H27        -50.4950     4.6980     4.7510 ha         1 3PJ       0.111500
     60 H28        -51.9410     4.4570     6.7280 ha         1 3PJ       0.112500
     61 H29        -53.7050     6.1470     7.2140 ha         1 3PJ       0.114000
     62 H30        -54.0110     8.0900     5.6880 ha         1 3PJ       0.112500
     63 H32        -50.5110     4.5190     2.3990 hc         1 3PJ       0.057200
     64 H32A       -50.1110     5.4530     0.9930 hc         1 3PJ       0.057200
     65 HAV        -46.8920    12.6320     0.5750 ha         1 3PJ       0.127000
     66 HAW        -52.5940     8.3630     3.7130 ha         1 3PJ       0.111500
     67 HBU        -44.1840    14.6080     3.8950 hc         1 3PJ       0.060700
     68 HBUA       -45.8070    15.1200     4.4090 hc         1 3PJ       0.060700
     69 HBUB       -44.4920    15.0430     5.5840 hc         1 3PJ       0.060700
@<TRIPOS>BOND
     1     1     9 1   
     2     1    37 1   
     3     1    38 1   
     4     2    31 ar  
     5     2    34 ar  
     6     2    39 1   
     7     3     4 ar  
     8     3    31 ar  
     9     3    35 1   
    10     4     5 ar  
    11     4    40 1   
    12     5    34 ar  
    13     5    41 1   
    14     6    19 1   
    15     6    20 1   
    16     6    21 1   
    17     6    36 1   
    18     7     9 1   
    19     7    29 1   
    20     7    42 1   
    21     7    43 1   
    22     8    36 1   
    23     8    44 1   
    24     9    30 2   
    25    10    12 1   
    26    10    13 1   
    27    10    35 1   
    28    11    35 2   
    29    12    14 1   
    30    12    18 1   
    31    12    45 1   
    32    13    22 1   
    33    13    23 1   
    34    13    46 1   
    35    14    15 1   
    36    14    47 1   
    37    14    48 1   
    38    15    16 1   
    39    15    49 1   
    40    15    50 1   
    41    16    17 1   
    42    16    24 1   
    43    16    29 1   
    44    17    18 1   
    45    17    51 1   
    46    17    52 1   
    47    18    53 1   
    48    18    54 1   
    49    22    23 1   
    50    22    55 1   
    51    22    56 1   
    52    23    57 1   
    53    23    58 1   
    54    24    25 ar  
    55    24    32 ar  
    56    25    26 ar  
    57    25    59 1   
    58    26    27 ar  
    59    26    60 1   
    60    27    28 ar  
    61    27    61 1   
    62    28    32 ar  
    63    28    62 1   
    64    29    63 1   
    65    29    64 1   
    66    31    65 1   
    67    32    66 1   
    68    33    36 1   
    69    33    67 1   
    70    33    68 1   
    71    33    69 1   
    72    34    36 1   
@<TRIPOS>SUBSTRUCTURE
     1 3PJ         1 TEMP              0 ****  ****    0 ROOT
