@<TRIPOS>MOLECULE
3PJ
   69    72     1     0     0
SMALL
abcg2


@<TRIPOS>ATOM
      1 N1         -52.9380     3.1440     0.9070 nt         1 3PJ      -0.610000
      2 C2         -46.4380    12.6110     2.7070 ca         1 3PJ      -0.088500
      3 C4         -46.3280    10.5300     1.4900 ca         1 3PJ      -0.121600
      4 C5         -45.6280     9.9630     2.5510 ca         1 3PJ      -0.081500
      5 C6         -45.3330    10.7160     3.6800 ca         1 3PJ      -0.088500
      6 C8         -46.6860    12.9560     5.9070 c3         1 3PJ       0.300000
      7 C10        -51.7610     5.1810     1.5050 c3         1 3PJ      -0.155400
      8 O10        -44.4960    12.1860     5.8760 oh         1 3PJ      -0.643000
      9 C12        -51.7940     3.8450     0.7870 c          1 3PJ       0.596100
     10 N12        -47.2850     8.6140     0.2840 n          1 3PJ      -0.377800
     11 O13        -46.1080    10.2140    -0.8350 o          1 3PJ      -0.584100
     12 C14        -48.2420     8.3630     1.3900 c6         1 3PJ       0.119700
     13 C15        -47.4380     7.8850    -0.9530 cx         1 3PJ       0.029700
     14 C16        -49.6700     8.2040     0.8650 c6         1 3PJ      -0.087400
     15 C17        -50.6510     8.0130     2.0210 c6         1 3PJ      -0.066900
     16 C18        -50.3120     6.7990     2.9070 c6         1 3PJ       0.002300
     17 C19        -48.8600     6.9960     3.4170 c6         1 3PJ      -0.066900
     18 C20        -47.8420     7.1980     2.2940 c6         1 3PJ      -0.087400
     19 F21        -47.1550    11.7400     6.2520 f          1 3PJ      -0.108000
     20 F22        -47.6840    13.6000     5.2690 f          1 3PJ      -0.108000
     21 F23        -46.4550    13.6270     7.0520 f          1 3PJ      -0.108000
     22 C24        -46.2360     7.2750    -1.6030 cx         1 3PJ      -0.122900
     23 C25        -47.2900     6.3900    -0.9970 cx         1 3PJ      -0.122900
     24 C26        -51.2430     6.6940     4.1170 ca         1 3PJ      -0.072300
     25 C27        -51.0610     5.6570     5.0420 ca         1 3PJ      -0.111000
     26 C28        -51.8860     5.5200     6.1510 ca         1 3PJ      -0.109500
     27 C29        -52.9240     6.4220     6.3690 ca         1 3PJ      -0.111000
     28 C30        -53.1210     7.4550     5.4630 ca         1 3PJ      -0.109500
     29 C32        -50.3870     5.4840     2.0940 c3         1 3PJ      -0.057400
     30 OAI        -50.8430     3.4360     0.1190 o          1 3PJ      -0.616100
     31 CAV        -46.7210    11.8640     1.5740 ca         1 3PJ      -0.081500
     32 CAW        -52.2900     7.5880     4.3510 ca         1 3PJ      -0.111000
     33 CBU        -44.9100    14.2650     4.7020 c3         1 3PJ      -0.124100
     34 CBV        -45.7380    12.0460     3.7750 ca         1 3PJ      -0.122300
     35 CBW        -46.5770     9.7750     0.2170 c          1 3PJ       0.602700
     36 CBZ        -45.4180    12.8590     5.0310 c3         1 3PJ       0.177300
     37 HN1        -53.0470     2.2760     0.4050 hn         1 3PJ       0.314000
     38 HN1A       -53.7110     3.4840     1.4540 hn         1 3PJ       0.314000
     39 H2         -46.7710    13.6380     2.7500 ha         1 3PJ       0.126000
     40 H5         -45.3000     8.9340     2.4940 ha         1 3PJ       0.127000
     41 H6         -44.7810    10.2670     4.4930 ha         1 3PJ       0.126000
     42 H10        -52.0240     5.9320     0.7540 hc         1 3PJ       0.059200
     43 H10A       -52.5370     5.2180     2.2710 hc         1 3PJ       0.059200
     44 HO10       -43.6150    12.2570     5.4840 ho         1 3PJ       0.462000
     45 H14        -48.2330     9.2640     2.0030 h1         1 3PJ       0.059700
     46 H15        -48.1790     8.3060    -1.6240 h1         1 3PJ       0.077700
     47 H16        -49.9460     9.0950     0.2960 hc         1 3PJ       0.052200
     48 H16A       -49.7270     7.3590     0.1780 hc         1 3PJ       0.052200
     49 H17        -50.6310     8.9120     2.6430 hc         1 3PJ       0.047200
     50 H17A       -51.6650     7.9340     1.6250 hc         1 3PJ       0.047200
     51 H19        -48.8490     7.8680     4.0800 hc         1 3PJ       0.047200
     52 H19A       -48.5620     6.1380     4.0220 hc         1 3PJ       0.047200
     53 H20        -47.7480     6.2840     1.7130 hc         1 3PJ       0.052200
     54 H20A       -46.8600     7.3950     2.7270 hc         1 3PJ       0.052200
     55 H24        -46.1580     7.3480    -2.6790 hc         1 3PJ       0.079450
     56 H24A       -45.3000     7.3610    -1.0680 hc         1 3PJ       0.079450
     57 H25        -47.0320     5.8670    -0.0890 hc         1 3PJ       0.079450
     58 H25A       -47.9680     5.8550    -1.6490 hc         1 3PJ       0.079450
     59 H27        -50.2650     4.9400     4.8950 ha         1 3PJ       0.111500
     60 H28        -51.7180     4.7040     6.8440 ha         1 3PJ       0.112500
     61 H29        -53.5690     6.3160     7.2320 ha         1 3PJ       0.114000
     62 H30        -53.9260     8.1640     5.6140 ha         1 3PJ       0.112500
     63 H32        -50.0830     4.6550     2.7370 hc         1 3PJ       0.057200
     64 H32A       -49.6640     5.5110     1.2830 hc         1 3PJ       0.057200
     65 HAV        -47.2560    12.3180     0.7500 ha         1 3PJ       0.127000
     66 HAW        -52.4770     8.3990     3.6640 ha         1 3PJ       0.111500
     67 HBU        -44.0090    14.1720     4.0950 hc         1 3PJ       0.060700
     68 HBUA       -45.6410    14.8440     4.1420 hc         1 3PJ       0.060700
     69 HBUB       -44.6660    14.7950     5.6210 hc         1 3PJ       0.060700
@<TRIPOS>BOND
     1     1     9 1   
     2     1    37 1   
     3     1    38 1   
     4     2    31 ar  
     5     2    34 ar  
     6     2    39 1   
     7     3     4 ar  
     8     3    31 ar  
     9     3    35 1   
    10     4     5 ar  
    11     4    40 1   
    12     5    34 ar  
    13     5    41 1   
    14     6    19 1   
    15     6    20 1   
    16     6    21 1   
    17     6    36 1   
    18     7     9 1   
    19     7    29 1   
    20     7    42 1   
    21     7    43 1   
    22     8    36 1   
    23     8    44 1   
    24     9    30 2   
    25    10    12 1   
    26    10    13 1   
    27    10    35 1   
    28    11    35 2   
    29    12    14 1   
    30    12    18 1   
    31    12    45 1   
    32    13    22 1   
    33    13    23 1   
    34    13    46 1   
    35    14    15 1   
    36    14    47 1   
    37    14    48 1   
    38    15    16 1   
    39    15    49 1   
    40    15    50 1   
    41    16    17 1   
    42    16    24 1   
    43    16    29 1   
    44    17    18 1   
    45    17    51 1   
    46    17    52 1   
    47    18    53 1   
    48    18    54 1   
    49    22    23 1   
    50    22    55 1   
    51    22    56 1   
    52    23    57 1   
    53    23    58 1   
    54    24    25 ar  
    55    24    32 ar  
    56    25    26 ar  
    57    25    59 1   
    58    26    27 ar  
    59    26    60 1   
    60    27    28 ar  
    61    27    61 1   
    62    28    32 ar  
    63    28    62 1   
    64    29    63 1   
    65    29    64 1   
    66    31    65 1   
    67    32    66 1   
    68    33    36 1   
    69    33    67 1   
    70    33    68 1   
    71    33    69 1   
    72    34    36 1   
@<TRIPOS>SUBSTRUCTURE
     1 3PJ         1 TEMP              0 ****  ****    0 ROOT
