@<TRIPOS>MOLECULE
3PK
   44    43     1     0     0
SMALL
No Charge or Current Charge


@<TRIPOS>ATOM
      1 CA1          2.8870    -0.2550     1.4770 c          1 3PK       0.593100
      2 OA1          3.5440    -0.8120     2.3470 o          1 3PK      -0.489000
      3 CA2          3.2250     1.1260     0.9110 c3         1 3PK      -0.137400
      4 CA3          4.2580     1.0250    -0.2370 c3         1 3PK      -0.069400
      5 CA4          4.6180     2.3970    -0.8480 c3         1 3PK      -0.076400
      6 CA5          5.6460     2.2970    -1.9910 c3         1 3PK      -0.088100
      7 CB1         -2.2990    -1.9700     0.6420 c          1 3PK       0.595100
      8 OB1         -2.6490    -3.0460     0.1760 o          1 3PK      -0.491000
      9 CB2         -3.2750    -0.8570     1.0260 c3         1 3PK      -0.137400
     10 CB3         -3.6220     0.0280    -0.1940 c3         1 3PK      -0.068400
     11 CB4         -4.5950     1.1770     0.1490 c3         1 3PK      -0.077400
     12 CB5         -4.9410     2.0600    -1.0700 c3         1 3PK      -0.074400
     13 CB6         -5.9120     3.2070    -0.7280 c3         1 3PK      -0.089100
     14 CG1          1.3370    -2.0960     1.3130 c3         1 3PK       0.164600
     15 OG1          1.7750    -0.7880     0.8840 os         1 3PK      -0.441100
     16 CG2          0.0700    -2.5080     0.5170 c3         1 3PK       0.178300
     17 OG2         -0.9980    -1.6080     0.8880 os         1 3PK      -0.448100
     18 CG3          0.2640    -2.4450    -1.0190 c3         1 3PK      -0.112100
     19 H1A2         2.3140     1.5740     0.4960 hc         1 3PK       0.071700
     20 H2A2         3.6350     1.7530     1.7110 hc         1 3PK       0.071700
     21 H1A3         5.1710     0.5470     0.1410 hc         1 3PK       0.054200
     22 H2A3         3.8590     0.3720    -1.0240 hc         1 3PK       0.054200
     23 H1A4         3.7070     2.8760    -1.2290 hc         1 3PK       0.036700
     24 H2A4         5.0190     3.0500    -0.0630 hc         1 3PK       0.036700
     25 H1A5         6.5830     1.8530    -1.6330 hc         1 3PK       0.034033
     26 H2A5         5.2590     1.6770    -2.8080 hc         1 3PK       0.034033
     27 H3A5         5.8700     3.2920    -2.3920 hc         1 3PK       0.034033
     28 H1B2        -4.1950    -1.3040     1.4200 hc         1 3PK       0.071200
     29 H2B2        -2.8050    -0.2110     1.7770 hc         1 3PK       0.071200
     30 H1B3        -2.6970     0.4490    -0.6080 hc         1 3PK       0.053700
     31 H2B3        -4.0650    -0.5990    -0.9790 hc         1 3PK       0.053700
     32 HB4         -5.5200     0.7540     0.5610 hc         1 3PK       0.037700
     33 HB5         -4.0180     2.4860    -1.4840 hc         1 3PK       0.039200
     34 H1B6        -6.1270     3.8040    -1.6220 hc         1 3PK       0.032033
     35 H2B6        -6.8590     2.8110    -0.3430 hc         1 3PK       0.032033
     36 H3B6        -5.4780     3.8690     0.0320 hc         1 3PK       0.032033
     37 H1G1         2.1240    -2.8410     1.1370 h1         1 3PK       0.059200
     38 H2G1         1.1030    -2.0980     2.3860 h1         1 3PK       0.059200
     39 HG2         -0.1740    -3.5390     0.8060 h1         1 3PK       0.068700
     40 H1G3         0.4080    -1.4110    -1.3550 hc         1 3PK       0.052033
     41 H2G3         1.1450    -3.0270    -1.3150 hc         1 3PK       0.052033
     42 H3G3        -0.6020    -2.8610    -1.5450 hc         1 3PK       0.052033
     43 H25         -4.1510     1.8030     0.9330 hc         1 3PK       0.037700
     44 H26         -5.3870     1.4380    -1.8560 hc         1 3PK       0.039200
@<TRIPOS>BOND
     1     1     2 2   
     2     1     3 1   
     3     1    15 1   
     4     3     4 1   
     5     3    19 1   
     6     3    20 1   
     7     4     5 1   
     8     4    21 1   
     9     4    22 1   
    10     5     6 1   
    11     5    23 1   
    12     5    24 1   
    13     6    25 1   
    14     6    26 1   
    15     6    27 1   
    16     7     8 2   
    17     7     9 1   
    18     7    17 1   
    19     9    10 1   
    20     9    28 1   
    21     9    29 1   
    22    10    11 1   
    23    10    30 1   
    24    10    31 1   
    25    11    12 1   
    26    11    32 1   
    27    11    43 1   
    28    12    13 1   
    29    12    33 1   
    30    12    44 1   
    31    13    34 1   
    32    13    35 1   
    33    13    36 1   
    34    14    15 1   
    35    14    16 1   
    36    14    37 1   
    37    14    38 1   
    38    16    17 1   
    39    16    18 1   
    40    16    39 1   
    41    18    40 1   
    42    18    41 1   
    43    18    42 1   
@<TRIPOS>SUBSTRUCTURE
     1 3PK         1 TEMP              0 ****  ****    0 ROOT
