@<TRIPOS>MOLECULE
3PK
   44    43     1     0     0
SMALL
bcc


@<TRIPOS>ATOM
      1 CA1          3.1010    -0.5620     0.5520 c          1 3PK       0.642100
      2 OA1          3.6080    -1.0480     1.5320 o          1 3PK      -0.538000
      3 CA2          3.6990     0.5300    -0.2910 c3         1 3PK      -0.137400
      4 CA3          5.0760     0.9800     0.1690 c3         1 3PK      -0.069400
      5 CA4          5.6330     2.0890    -0.7160 c3         1 3PK      -0.076400
      6 CA5          7.0090     2.5590    -0.2670 c3         1 3PK      -0.088100
      7 CB1         -2.1900    -1.2060     0.0050 c          1 3PK       0.644100
      8 OB1         -2.7630    -2.2580    -0.1320 o          1 3PK      -0.540000
      9 CB2         -2.8610     0.1360     0.1200 c3         1 3PK      -0.137400
     10 CB3         -4.3650     0.0890    -0.0880 c3         1 3PK      -0.068400
     11 CB4         -5.0070     1.4610     0.0810 c3         1 3PK      -0.077400
     12 CB5         -6.5140     1.4420    -0.1360 c3         1 3PK      -0.074400
     13 CB6         -7.1560     2.8090     0.0540 c3         1 3PK      -0.089100
     14 CG1          1.2160    -1.9700     0.7800 c3         1 3PK       0.141400
     15 OG1          1.9140    -0.9390     0.0850 os         1 3PK      -0.417900
     16 CG2         -0.0570    -2.2790     0.0260 c3         1 3PK       0.155100
     17 OG2         -0.8670    -1.0930     0.0860 os         1 3PK      -0.424900
     18 CG3          0.1760    -2.7040    -1.4130 c3         1 3PK      -0.112100
     19 H1A2         3.7340     0.1820    -1.3290 hc         1 3PK       0.071700
     20 H2A2         3.0020     1.3750    -0.2920 hc         1 3PK       0.071700
     21 H1A3         5.0260     1.3330     1.2030 hc         1 3PK       0.054200
     22 H2A3         5.7660     0.1320     0.1650 hc         1 3PK       0.054200
     23 H1A4         5.6850     1.7360    -1.7510 hc         1 3PK       0.036700
     24 H2A4         4.9380     2.9340    -0.7190 hc         1 3PK       0.036700
     25 H1A5         6.9810     2.9390     0.7560 hc         1 3PK       0.034033
     26 H2A5         7.7330     1.7430    -0.2960 hc         1 3PK       0.034033
     27 H3A5         7.3860     3.3580    -0.9060 hc         1 3PK       0.034033
     28 H1B2        -2.6250     0.5430     1.1090 hc         1 3PK       0.071200
     29 H2B2        -2.3930     0.8200    -0.5940 hc         1 3PK       0.071200
     30 H1B3        -4.5870    -0.2950    -1.0880 hc         1 3PK       0.053700
     31 H2B3        -4.8170    -0.6100     0.6200 hc         1 3PK       0.053700
     32 HB4         -4.7910     1.8430     1.0850 hc         1 3PK       0.037700
     33 HB5         -6.7280     1.0720    -1.1430 hc         1 3PK       0.039200
     34 H1B6        -8.2330     2.7740    -0.1130 hc         1 3PK       0.032033
     35 H2B6        -6.9910     3.1850     1.0660 hc         1 3PK       0.032033
     36 H3B6        -6.7380     3.5410    -0.6400 hc         1 3PK       0.032033
     37 H1G1         1.8190    -2.8790     0.8330 h1         1 3PK       0.059200
     38 H2G1         0.9880    -1.6550     1.8010 h1         1 3PK       0.059200
     39 HG2         -0.5510    -3.0880     0.5720 h1         1 3PK       0.068700
     40 H1G3         0.6080    -1.8990    -2.0070 hc         1 3PK       0.052033
     41 H2G3         0.8600    -3.5520    -1.4410 hc         1 3PK       0.052033
     42 H3G3        -0.7540    -3.0180    -1.8840 hc         1 3PK       0.052033
     43 H25         -4.5490     2.1710    -0.6170 hc         1 3PK       0.037700
     44 H26         -6.9690     0.7230     0.5530 hc         1 3PK       0.039200
@<TRIPOS>BOND
     1     1     2 2   
     2     1     3 1   
     3     1    15 1   
     4     3     4 1   
     5     3    19 1   
     6     3    20 1   
     7     4     5 1   
     8     4    21 1   
     9     4    22 1   
    10     5     6 1   
    11     5    23 1   
    12     5    24 1   
    13     6    25 1   
    14     6    26 1   
    15     6    27 1   
    16     7     8 2   
    17     7     9 1   
    18     7    17 1   
    19     9    10 1   
    20     9    28 1   
    21     9    29 1   
    22    10    11 1   
    23    10    30 1   
    24    10    31 1   
    25    11    12 1   
    26    11    32 1   
    27    11    43 1   
    28    12    13 1   
    29    12    33 1   
    30    12    44 1   
    31    13    34 1   
    32    13    35 1   
    33    13    36 1   
    34    14    15 1   
    35    14    16 1   
    36    14    37 1   
    37    14    38 1   
    38    16    17 1   
    39    16    18 1   
    40    16    39 1   
    41    18    40 1   
    42    18    41 1   
    43    18    42 1   
@<TRIPOS>SUBSTRUCTURE
     1 3PK         1 TEMP              0 ****  ****    0 ROOT
