@<TRIPOS>MOLECULE
3PL
   20    20     1     0     0
SMALL
abcg2


@<TRIPOS>ATOM
      1 C            0.3630     0.0830    -3.2640 c          1 3PL       0.572900
      2 O           -0.3620     0.4040    -4.1730 o          1 3PL      -0.512100
      3 CA           0.1610     0.4540    -1.8270 c3         1 3PL      -0.202400
      4 CB           0.2350    -0.7790    -0.9170 c3         1 3PL      -0.021100
      5 CG           0.1140    -0.4030     0.5330 ca         1 3PL      -0.084300
      6 CD1          1.2480    -0.1260     1.2940 ca         1 3PL      -0.105500
      7 CE1          1.1360     0.2590     2.6240 ca         1 3PL      -0.108000
      8 CZ          -0.1160     0.3730     3.2130 ca         1 3PL      -0.108000
      9 CE2         -1.2530     0.0990     2.4640 ca         1 3PL      -0.108000
     10 CD2         -1.1370    -0.2860     1.1350 ca         1 3PL      -0.105500
     11 H            1.2640    -0.5290    -3.4520 h4         1 3PL      -0.020800
     12 HA1          0.9710     1.1430    -1.5590 hc         1 3PL       0.071700
     13 HA2         -0.7840     0.9860    -1.7040 hc         1 3PL       0.071700
     14 HB1         -0.5600    -1.4780    -1.1870 hc         1 3PL       0.049700
     15 HB2          1.1820    -1.2980    -1.0880 hc         1 3PL       0.049700
     16 HD1          2.2290    -0.2180     0.8430 ha         1 3PL       0.111000
     17 HE1          2.0290     0.4640     3.2000 ha         1 3PL       0.113000
     18 HZ          -0.2050     0.6690     4.2510 ha         1 3PL       0.113000
     19 HE2         -2.2340     0.1830     2.9150 ha         1 3PL       0.113000
     20 HD2         -2.0300    -0.5030     0.5600 ha         1 3PL       0.111000
@<TRIPOS>BOND
     1     1     2 2   
     2     1     3 1   
     3     1    11 1   
     4     3     4 1   
     5     3    12 1   
     6     3    13 1   
     7     4     5 1   
     8     4    14 1   
     9     4    15 1   
    10     5     6 ar  
    11     5    10 ar  
    12     6     7 ar  
    13     6    16 1   
    14     7     8 ar  
    15     7    17 1   
    16     8     9 ar  
    17     8    18 1   
    18     9    10 ar  
    19     9    19 1   
    20    10    20 1   
@<TRIPOS>SUBSTRUCTURE
     1 3PL         1 TEMP              0 ****  ****    0 ROOT
