@<TRIPOS>MOLECULE
3PL
   20    20     1     0     0
SMALL
No Charge or Current Charge


@<TRIPOS>ATOM
      1 C            0.3710     0.0720    -3.3220 c          1 3PL       0.572900
      2 O           -0.5720    -0.2830    -4.0200 o          1 3PL      -0.512100
      3 CA           0.2220     0.4720    -1.8540 c3         1 3PL      -0.202400
      4 CB           0.2320    -0.7640    -0.9270 c3         1 3PL      -0.021100
      5 CG           0.1060    -0.3770     0.5400 ca         1 3PL      -0.084300
      6 CD1          1.2590    -0.1590     1.3190 ca         1 3PL      -0.105500
      7 CE1          1.1430     0.2030     2.6730 ca         1 3PL      -0.108000
      8 CZ          -0.1280     0.3510     3.2540 ca         1 3PL      -0.108000
      9 CE2         -1.2820     0.1380     2.4810 ca         1 3PL      -0.108000
     10 CD2         -1.1650    -0.2250     1.1280 ca         1 3PL      -0.105500
     11 H            1.4040     0.1210    -3.7320 h4         1 3PL      -0.020800
     12 HA1          1.0760     1.1000    -1.5760 hc         1 3PL       0.071700
     13 HA2         -0.7210     1.0150    -1.7170 hc         1 3PL       0.071700
     14 HB1         -0.5900    -1.4350    -1.2090 hc         1 3PL       0.049700
     15 HB2          1.1580    -1.3320    -1.0890 hc         1 3PL       0.049700
     16 HD1          2.2470    -0.2690     0.8770 ha         1 3PL       0.111000
     17 HE1          2.0370     0.3700     3.2700 ha         1 3PL       0.113000
     18 HZ          -0.2180     0.6320     4.3020 ha         1 3PL       0.113000
     19 HE2         -2.2660     0.2530     2.9300 ha         1 3PL       0.113000
     20 HD2         -2.0630    -0.3860     0.5350 ha         1 3PL       0.111000
@<TRIPOS>BOND
     1     1     2 2   
     2     1     3 1   
     3     1    11 1   
     4     3     4 1   
     5     3    12 1   
     6     3    13 1   
     7     4     5 1   
     8     4    14 1   
     9     4    15 1   
    10     5     6 ar  
    11     5    10 ar  
    12     6     7 ar  
    13     6    16 1   
    14     7     8 ar  
    15     7    17 1   
    16     8     9 ar  
    17     8    18 1   
    18     9    10 ar  
    19     9    19 1   
    20    10    20 1   
@<TRIPOS>SUBSTRUCTURE
     1 3PL         1 TEMP              0 ****  ****    0 ROOT
