@<TRIPOS>MOLECULE
3PM
   25    24     1     0     0
SMALL
bcc


@<TRIPOS>ATOM
      1 N           16.1290    21.6080    38.1630 n8         1 3PM      -0.864800
      2 CA          16.2160    22.7910    37.3100 c3         1 3PM       0.012500
      3 C11         15.4520    23.9070    38.0050 c3         1 3PM       0.158400
      4 O12         15.5880    25.0830    37.2430 os         1 3PM      -0.401600
      5 C13         14.6360    26.1230    37.4440 c3         1 3PM       0.171800
      6 C15         14.4610    26.4580    38.9250 c3         1 3PM      -0.100767
      7 C16         13.2900    25.7440    36.8250 c3         1 3PM      -0.100767
      8 C14         15.2160    27.3280    36.7120 c3         1 3PM      -0.100767
      9 C           15.5940    22.5010    35.9190 c          1 3PM       0.938600
     10 O           14.4070    22.1170    35.9130 o          1 3PM      -0.831800
     11 HN9         16.5890    20.8270    37.7110 hn         1 3PM       0.308300
     12 H10         17.2540    23.1240    37.1610 h1         1 3PM       0.013700
     13 H11         14.4080    23.5920    38.1140 h1         1 3PM       0.011200
     14 H11A        15.8500    24.0530    39.0210 h1         1 3PM       0.011200
     15 H15         13.8080    27.3250    39.0360 hc         1 3PM       0.033367
     16 H15A        14.0070    25.6380    39.4840 hc         1 3PM       0.033367
     17 H15B        15.4180    26.7000    39.3910 hc         1 3PM       0.033367
     18 H16         12.5820    26.5680    36.9250 hc         1 3PM       0.033367
     19 H16A        13.3990    25.5220    35.7620 hc         1 3PM       0.033367
     20 H16B        12.8450    24.8740    37.3100 hc         1 3PM       0.033367
     21 H14         14.5330    28.1760    36.7690 hc         1 3PM       0.033367
     22 H14A        16.1670    27.6320    37.1520 hc         1 3PM       0.033367
     23 H14B        15.3830    27.1040    35.6570 hc         1 3PM       0.033367
     24 H2          16.6580    21.7710    39.0120 hn         1 3PM       0.308300
     25 OXT         16.3280    22.6760    34.9270 o          1 3PM      -0.831800
@<TRIPOS>BOND
     1     1     2 1   
     2     1    11 1   
     3     1    24 1   
     4     2     3 1   
     5     2     9 1   
     6     2    12 1   
     7     3     4 1   
     8     3    13 1   
     9     3    14 1   
    10     4     5 1   
    11     5     6 1   
    12     5     7 1   
    13     5     8 1   
    14     6    15 1   
    15     6    16 1   
    16     6    17 1   
    17     7    18 1   
    18     7    19 1   
    19     7    20 1   
    20     8    21 1   
    21     8    22 1   
    22     8    23 1   
    23     9    10 1   
    24     9    25 1   
@<TRIPOS>SUBSTRUCTURE
     1 3PM         1 TEMP              0 ****  ****    0 ROOT
