@<TRIPOS>MOLECULE
3PQ
   35    36     1     0     0
SMALL
No Charge or Current Charge


@<TRIPOS>ATOM
      1 C7          -5.4320     0.3000    -0.4750 c          1 3PQ       0.564000
      2 C6          -3.7130    -1.1750    -1.6660 c3         1 3PQ      -0.090100
      3 N1          -5.7490    -0.0480     0.7890 ns         1 3PQ      -0.481500
      4 C5          -3.9160    -0.0860    -0.5820 c5         1 3PQ       0.014400
      5 C2          -4.7880    -0.5650     1.5590 c          1 3PQ       0.620000
      6 C16          3.5780     0.0090    -0.9000 ca         1 3PQ      -0.161000
      7 C21          3.8020    -0.0630     1.5240 ca         1 3PQ      -0.161000
      8 C17          4.9580    -0.2410    -1.0310 ca         1 3PQ      -0.065500
      9 C20          5.1800    -0.3130     1.3920 ca         1 3PQ      -0.065500
     10 C13          0.7340     0.5230    -0.5280 c3         1 3PQ       0.075600
     11 C9          -3.0740     1.1860    -0.8860 c3         1 3PQ       0.101000
     12 C15          2.9960     0.0990     0.3840 ca         1 3PQ       0.138100
     13 C18          5.7560    -0.4020     0.1140 ca         1 3PQ       0.085000
     14 C11         -0.7140     0.7790    -0.0510 c          1 3PQ       0.598100
     15 N4          -3.6750    -0.6250     0.7800 ns         1 3PQ      -0.513900
     16 N10         -1.6310     0.9510    -1.0710 ns         1 3PQ      -0.516900
     17 O8          -6.1940     0.7990    -1.2880 o          1 3PQ      -0.509000
     18 O3          -4.8860    -0.9030     2.7220 o          1 3PQ      -0.536000
     19 O12         -1.0420     0.8290     1.1280 o          1 3PQ      -0.553100
     20 O14          1.6520     0.3420     0.5760 os         1 3PQ      -0.310100
     21 Cl1          7.4790    -0.7140    -0.0540 cl         1 3PQ      -0.201000
     22 H1          -3.9470    -0.7900    -2.6660 hc         1 3PQ       0.053700
     23 H2          -2.6790    -1.5400    -1.6810 hc         1 3PQ       0.053700
     24 H3          -4.3620    -2.0400    -1.4830 hc         1 3PQ       0.053700
     25 H4          -6.6780     0.0970     1.1520 hn         1 3PQ       0.358500
     26 H6           3.3560     0.0050     2.5130 ha         1 3PQ       0.127500
     27 H7           5.4080    -0.3100    -2.0180 ha         1 3PQ       0.131000
     28 H8           5.8000    -0.4380     2.2770 ha         1 3PQ       0.131000
     29 H9           0.7170    -0.3690    -1.1660 h1         1 3PQ       0.051200
     30 H10          1.0350     1.3800    -1.1430 h1         1 3PQ       0.051200
     31 H11         -3.4600     1.6510    -1.8040 h1         1 3PQ       0.076700
     32 H12         -3.2150     1.9120    -0.0730 h1         1 3PQ       0.076700
     33 H13         -2.7840    -0.8730     1.1960 hn         1 3PQ       0.360500
     34 H14         -1.2720     0.8990    -2.0180 hn         1 3PQ       0.316500
     35 H5           2.9830     0.1300    -1.8010 ha         1 3PQ       0.127500
@<TRIPOS>BOND
     1     1     3 1   
     2     1     4 1   
     3     1    17 2   
     4     2     4 1   
     5     2    22 1   
     6     2    23 1   
     7     2    24 1   
     8     3     5 1   
     9     3    25 1   
    10     4    11 1   
    11     4    15 1   
    12     5    15 1   
    13     5    18 2   
    14     6     8 ar  
    15     6    12 ar  
    16     6    35 1   
    17     7     9 ar  
    18     7    12 ar  
    19     7    26 1   
    20     8    13 ar  
    21     8    27 1   
    22     9    13 ar  
    23     9    28 1   
    24    10    14 1   
    25    10    20 1   
    26    10    29 1   
    27    10    30 1   
    28    11    16 1   
    29    11    31 1   
    30    11    32 1   
    31    12    20 1   
    32    13    21 1   
    33    14    16 1   
    34    14    19 2   
    35    15    33 1   
    36    16    34 1   
@<TRIPOS>SUBSTRUCTURE
     1 3PQ         1 TEMP              0 ****  ****    0 ROOT
