@<TRIPOS>MOLECULE
3PQ
   35    36     1     0     0
SMALL
abcg2


@<TRIPOS>ATOM
      1 C7          -5.2960     0.3280    -0.4180 c          1 3PQ       0.564000
      2 C6          -3.7580    -1.2250    -1.6450 c3         1 3PQ      -0.090100
      3 N1          -5.6540     0.0750     0.8660 ns         1 3PQ      -0.481500
      4 C5          -3.8540    -0.1500    -0.5690 c5         1 3PQ       0.014400
      5 C2          -4.6300    -0.5220     1.6030 c          1 3PQ       0.620000
      6 C16          3.5120     0.1460    -0.9010 ca         1 3PQ      -0.161000
      7 C21          3.6180    -0.1740     1.4820 ca         1 3PQ      -0.161000
      8 C17          4.8790    -0.0920    -0.9850 ca         1 3PQ      -0.065500
      9 C20          4.9760    -0.4110     1.3970 ca         1 3PQ      -0.065500
     10 C13          0.7580     0.5950    -0.5970 c3         1 3PQ       0.075600
     11 C9          -2.9740     1.0730    -0.8920 c3         1 3PQ       0.101000
     12 C15          2.8740     0.1060     0.3350 ca         1 3PQ       0.138100
     13 C18          5.6030    -0.3680     0.1590 ca         1 3PQ       0.085000
     14 C11         -0.6590     0.8280    -0.1010 c          1 3PQ       0.598100
     15 N4          -3.6000    -0.6790     0.7520 ns         1 3PQ      -0.513900
     16 N10         -1.5850     0.7410    -1.0740 ns         1 3PQ      -0.516900
     17 O8          -5.9710     0.8380    -1.2810 o          1 3PQ      -0.509000
     18 O3          -4.7010    -0.8300     2.7720 o          1 3PQ      -0.536000
     19 O12         -0.9090     1.0950     1.0590 o          1 3PQ      -0.553100
     20 O14          1.5560     0.3200     0.5220 os         1 3PQ      -0.310100
     21 CL1          7.3100    -0.6630     0.0490 cl         1 3PQ      -0.201000
     22 H1          -4.0140    -0.8190    -2.6230 hc         1 3PQ       0.053700
     23 H2          -2.7440    -1.6220    -1.6940 hc         1 3PQ       0.053700
     24 H3          -4.4320    -2.0520    -1.4250 hc         1 3PQ       0.053700
     25 H4          -6.5600     0.2880     1.2590 hn         1 3PQ       0.358500
     26 H6           3.1250    -0.2050     2.4460 ha         1 3PQ       0.127500
     27 H7           5.3650    -0.0590    -1.9510 ha         1 3PQ       0.131000
     28 H8           5.5410    -0.6290     2.2930 ha         1 3PQ       0.131000
     29 H9           0.7810    -0.2280    -1.3210 h1         1 3PQ       0.051200
     30 H10          1.0910     1.5010    -1.1190 h1         1 3PQ       0.051200
     31 H11         -3.3380     1.5250    -1.8150 h1         1 3PQ       0.076700
     32 H12         -3.0710     1.8150    -0.1000 h1         1 3PQ       0.076700
     33 H13         -2.7040    -1.0210     1.0590 hn         1 3PQ       0.360500
     34 H14         -1.2820     0.5150    -2.0080 hn         1 3PQ       0.316500
     35 H5           2.9730     0.3570    -1.8140 ha         1 3PQ       0.127500
@<TRIPOS>BOND
     1     1     3 1   
     2     1     4 1   
     3     1    17 2   
     4     2     4 1   
     5     2    22 1   
     6     2    23 1   
     7     2    24 1   
     8     3     5 1   
     9     3    25 1   
    10     4    11 1   
    11     4    15 1   
    12     5    15 1   
    13     5    18 2   
    14     6     8 ar  
    15     6    12 ar  
    16     6    35 1   
    17     7     9 ar  
    18     7    12 ar  
    19     7    26 1   
    20     8    13 ar  
    21     8    27 1   
    22     9    13 ar  
    23     9    28 1   
    24    10    14 1   
    25    10    20 1   
    26    10    29 1   
    27    10    30 1   
    28    11    16 1   
    29    11    31 1   
    30    11    32 1   
    31    12    20 1   
    32    13    21 1   
    33    14    16 1   
    34    14    19 2   
    35    15    33 1   
    36    16    34 1   
@<TRIPOS>SUBSTRUCTURE
     1 3PQ         1 TEMP              0 ****  ****    0 ROOT
