@<TRIPOS>MOLECULE
3PS
   38    40     1     0     0
SMALL
No Charge or Current Charge


@<TRIPOS>ATOM
      1 C1          44.6720    11.7190    27.9970 c3         1 3PS      -0.141400
      2 N2          46.8020    12.8370    28.4160 nb         1 3PS      -0.296000
      3 C3          47.5100    13.7530    29.0800 ca         1 3PS       0.425900
      4 N4          48.8170    13.8060    28.7040 nv         1 3PS      -1.070900
      5 C5          46.9380    14.5890    30.0660 ca         1 3PS      -0.198000
      6 C6          45.5520    14.4280    30.3480 ca         1 3PS       0.103000
      7 C7          44.9390    15.2590    31.3380 ca         1 3PS      -0.156600
      8 N8          44.8580    13.4970    29.6540 nb         1 3PS      -0.286000
      9 C9          45.5010    12.7530    28.7350 ca         1 3PS       0.223300
     10 C10         47.0960    16.3710    31.7100 ca         1 3PS      -0.142000
     11 C11         45.7340    16.2290    31.9960 ca         1 3PS      -0.014000
     12 C12         47.7030    15.5550    30.7520 ca         1 3PS      -0.043000
     13 O14         42.9710    16.0840    32.4260 o          1 3PS      -0.614100
     14 N15         42.7220    14.0960    31.3230 ns         1 3PS      -0.143000
     15 C16         41.3600    13.7150    31.5130 ca         1 3PS      -0.066000
     16 C17         40.9000    12.5460    30.8710 ca         1 3PS       0.299900
     17 N18         39.6350    12.0790    30.9710 nb         1 3PS      -0.662000
     18 C19         38.7600    12.7660    31.7290 ca         1 3PS       0.510300
     19 C20         39.1260    13.9480    32.4130 ca         1 3PS      -0.146000
     20 C21         40.4420    14.4330    32.3080 ca         1 3PS      -0.097000
     21 O22         37.4860    12.2450    31.7960 os         1 3PS      -0.480300
     22 C23         36.4400    12.8670    32.5650 c3         1 3PS       0.154900
     23 H1          45.1590    11.3950    27.0700 hc         1 3PS       0.064367
     24 H1A         44.5140    10.8310    28.6200 hc         1 3PS       0.064367
     25 H1B         43.6870    12.1200    27.7280 hc         1 3PS       0.064367
     26 HN4         49.0820    13.3080    27.8580 hn         1 3PS       0.506000
     27 HN4A        49.3550    14.6410    28.9150 hn         1 3PS       0.506000
     28 H10         47.6860    17.1190    32.2370 ha         1 3PS       0.126000
     29 H11         45.2990    16.8800    32.7520 ha         1 3PS       0.148000
     30 H12         48.7640    15.6850    30.5540 ha         1 3PS       0.107000
     31 HN15        43.2570    13.4390    30.7710 hn         1 3PS       0.211000
     32 H17         41.5740    11.9590    30.2480 h4         1 3PS       0.019100
     33 H20         38.4120    14.4920    33.0220 ha         1 3PS       0.132000
     34 H21         40.7150    15.3390    32.8400 ha         1 3PS       0.155000
     35 H23         35.5100    12.2910    32.4800 h1         1 3PS       0.038033
     36 H23A        36.7120    12.9160    33.6280 h1         1 3PS       0.038033
     37 H23B        36.2410    13.8850    32.2050 h1         1 3PS       0.038033
     38 C13         43.4660    15.1900    31.7470 c          1 3PS       0.620700
@<TRIPOS>BOND
     1     1     9 1   
     2     1    23 1   
     3     1    24 1   
     4     1    25 1   
     5     2     3 ar  
     6     2     9 ar  
     7     3     4 1   
     8     3     5 ar  
     9     4    26 1   
    10     4    27 1   
    11     5     6 ar  
    12     5    12 ar  
    13     6     7 ar  
    14     6     8 ar  
    15     7    11 ar  
    16     7    38 1   
    17     8     9 ar  
    18    10    11 ar  
    19    10    12 ar  
    20    10    28 1   
    21    11    29 1   
    22    12    30 1   
    23    13    38 2   
    24    14    15 1   
    25    14    31 1   
    26    14    38 1   
    27    15    16 ar  
    28    15    20 ar  
    29    16    17 ar  
    30    16    32 1   
    31    17    18 ar  
    32    18    19 ar  
    33    18    21 1   
    34    19    20 ar  
    35    19    33 1   
    36    20    34 1   
    37    21    22 1   
    38    22    35 1   
    39    22    36 1   
    40    22    37 1   
@<TRIPOS>SUBSTRUCTURE
     1 3PS         1 TEMP              0 ****  ****    0 ROOT
