@<TRIPOS>MOLECULE
3PS
   38    40     1     0     0
SMALL
abcg2


@<TRIPOS>ATOM
      1 C1          44.5100    11.6370    28.1830 c3         1 3PS      -0.141400
      2 N2          46.5780    12.8970    28.3440 nb         1 3PS      -0.296000
      3 C3          47.3270    13.8510    28.8970 ca         1 3PS       0.425900
      4 N4          48.5630    14.0110    28.4090 nv         1 3PS      -1.070900
      5 C5          46.8230    14.6690    29.9730 ca         1 3PS      -0.198000
      6 C6          45.4930    14.3980    30.3870 ca         1 3PS       0.103000
      7 C7          44.9280    15.1760    31.4450 ca         1 3PS      -0.156600
      8 N8          44.7680    13.4130    29.7840 nb         1 3PS      -0.286000
      9 C9          45.3320    12.7220    28.8130 ca         1 3PS       0.223300
     10 C10         47.0160    16.4190    31.6190 ca         1 3PS      -0.142000
     11 C11         45.7040    16.1610    32.0290 ca         1 3PS      -0.014000
     12 C12         47.5700    15.6810    30.5990 ca         1 3PS      -0.043000
     13 O14         43.1320    15.7670    32.8950 o          1 3PS      -0.614100
     14 N15         42.7800    14.0430    31.4440 ns         1 3PS      -0.143000
     15 C16         41.4680    13.6820    31.7530 ca         1 3PS      -0.066000
     16 C17         40.8500    12.7450    30.9170 ca         1 3PS       0.299900
     17 N18         39.6090    12.2990    31.0990 nb         1 3PS      -0.662000
     18 C19         38.9210    12.7630    32.1330 ca         1 3PS       0.510300
     19 C20         39.4390    13.6950    33.0260 ca         1 3PS      -0.146000
     20 C21         40.7290    14.1640    32.8400 ca         1 3PS      -0.097000
     21 O22         37.6630    12.2530    32.3210 os         1 3PS      -0.480300
     22 C23         36.6090    13.0470    31.7540 c3         1 3PS       0.154900
     23 H1          45.0320    11.1990    27.3350 hc         1 3PS       0.064367
     24 H1A         44.3030    10.8550    28.9180 hc         1 3PS       0.064367
     25 H1B         43.5490    12.0370    27.8560 hc         1 3PS       0.064367
     26 HN4         48.8710    13.4150    27.6580 hn         1 3PS       0.506000
     27 HN4A        49.2000    14.7040    28.7570 hn         1 3PS       0.506000
     28 H10         47.5880    17.1980    32.1040 ha         1 3PS       0.126000
     29 H11         45.2660    16.7410    32.8290 ha         1 3PS       0.148000
     30 H12         48.5850    15.8930    30.2900 ha         1 3PS       0.107000
     31 HN15        43.2550    13.5310    30.6850 hn         1 3PS       0.211000
     32 H17         41.3950    12.3450    30.0680 h4         1 3PS       0.019100
     33 H20         38.8390    14.0380    33.8570 ha         1 3PS       0.132000
     34 H21         41.1620    14.8810    33.5160 ha         1 3PS       0.155000
     35 H23         35.6770    12.5330    31.9790 h1         1 3PS       0.038033
     36 H23A        36.5960    14.0450    32.2000 h1         1 3PS       0.038033
     37 H23B        36.7340    13.1300    30.6710 h1         1 3PS       0.038033
     38 C13         43.5330    15.0250    31.9970 c          1 3PS       0.620700
@<TRIPOS>BOND
     1     1     9 1   
     2     1    23 1   
     3     1    24 1   
     4     1    25 1   
     5     2     3 ar  
     6     2     9 ar  
     7     3     4 1   
     8     3     5 ar  
     9     4    26 1   
    10     4    27 1   
    11     5     6 ar  
    12     5    12 ar  
    13     6     7 ar  
    14     6     8 ar  
    15     7    11 ar  
    16     7    38 1   
    17     8     9 ar  
    18    10    11 ar  
    19    10    12 ar  
    20    10    28 1   
    21    11    29 1   
    22    12    30 1   
    23    13    38 2   
    24    14    15 1   
    25    14    31 1   
    26    14    38 1   
    27    15    16 ar  
    28    15    20 ar  
    29    16    17 ar  
    30    16    32 1   
    31    17    18 ar  
    32    18    19 ar  
    33    18    21 1   
    34    19    20 ar  
    35    19    33 1   
    36    20    34 1   
    37    21    22 1   
    38    22    35 1   
    39    22    36 1   
    40    22    37 1   
@<TRIPOS>SUBSTRUCTURE
     1 3PS         1 TEMP              0 ****  ****    0 ROOT
