@<TRIPOS>MOLECULE
3PU
   37    40     1     0     0
SMALL
No Charge or Current Charge


@<TRIPOS>ATOM
      1 C7          -1.9470     1.2660    -0.5890 c3         1 3PU       0.107000
      2 C6           2.8750     1.2780     0.9770 cc         1 3PU      -0.141200
      3 C1           5.5670    -1.2380    -1.0710 ca         1 3PU      -0.074000
      4 C5           5.3020     0.3880     0.7580 ca         1 3PU      -0.040000
      5 C4          -6.7640     0.2860     0.0780 cc         1 3PU      -0.270000
      6 C3          -6.2770     1.2030    -0.8220 cd         1 3PU       0.278900
      7 C2           4.1980    -1.1210    -1.4020 ca         1 3PU      -0.100000
      8 C8           6.1130    -0.4880     0.0020 ca         1 3PU       0.095000
      9 C9           3.4240    -0.2450    -0.6340 ca         1 3PU       0.076100
     10 C10          3.9480     0.4860     0.4090 ca         1 3PU      -0.125800
     11 C11          1.7610     0.9530     0.2110 cd         1 3PU      -0.062100
     12 C12         -4.3440     0.3770    -0.0750 cc         1 3PU       0.399700
     13 C13         -2.4460    -0.0780     1.5400 c          1 3PU       0.578000
     14 C14         -2.0990    -2.0470     0.3830 c          1 3PU       0.616000
     15 C15          0.3810     1.4870     0.3760 c          1 3PU       0.641300
     16 C16         -2.8420     0.1750     0.0570 c5         1 3PU      -0.032900
     17 N17         -4.8940     1.2530    -0.9100 nd         1 3PU      -0.615000
     18 N18         -2.0350    -1.3660     1.5330 ns         1 3PU      -0.480500
     19 N19         -2.6120    -1.1810    -0.5340 ns         1 3PU      -0.516900
     20 N20         -0.5080     0.9690    -0.5390 ns         1 3PU      -0.507900
     21 O21         -2.5080     0.6450     2.5200 o          1 3PU      -0.451000
     22 O22         -1.7790    -3.2040     0.1980 o          1 3PU      -0.531000
     23 O23          0.0540     2.2980     1.2310 o          1 3PU      -0.563100
     24 O24          2.0980     0.0340    -0.7590 os         1 3PU      -0.177200
     25 S25         -5.4760    -0.5750     0.8650 ss         1 3PU       0.023600
     26 H1          -2.2340     1.3810    -1.6430 h1         1 3PU       0.087200
     27 H2          -2.1430     2.2290    -0.0950 h1         1 3PU       0.087200
     28 H3           2.9080     1.9750     1.8130 ha         1 3PU       0.235000
     29 H4           6.2060    -1.9070    -1.6410 ha         1 3PU       0.135000
     30 H5           5.7160     0.9650     1.5810 ha         1 3PU       0.140000
     31 H6          -7.7940     0.0630     0.3220 h4         1 3PU       0.165000
     32 H7          -6.8770     1.8600    -1.4390 h4         1 3PU       0.048100
     33 H8           3.7610    -1.6870    -2.2200 ha         1 3PU       0.137000
     34 H9          -1.7080    -1.8120     2.3750 hn         1 3PU       0.360500
     35 H10         -2.7440    -1.4770    -1.4960 hn         1 3PU       0.342500
     36 H11         -0.1250     0.3070    -1.2040 hn         1 3PU       0.330500
     37 Cl2          7.8190    -0.6510     0.3960 cl         1 3PU      -0.196000
@<TRIPOS>BOND
     1     1    16 1   
     2     1    20 1   
     3     1    26 1   
     4     1    27 1   
     5     2    10 1   
     6     2    11 2   
     7     2    28 1   
     8     3     7 ar  
     9     3     8 ar  
    10     3    29 1   
    11     4     8 ar  
    12     4    10 ar  
    13     4    30 1   
    14     5     6 2   
    15     5    25 1   
    16     5    31 1   
    17     6    17 1   
    18     6    32 1   
    19     7     9 ar  
    20     7    33 1   
    21     8    37 1   
    22     9    10 ar  
    23     9    24 1   
    24    11    15 1   
    25    11    24 1   
    26    12    16 1   
    27    12    17 2   
    28    12    25 1   
    29    13    16 1   
    30    13    18 1   
    31    13    21 2   
    32    14    18 1   
    33    14    19 1   
    34    14    22 2   
    35    15    20 1   
    36    15    23 2   
    37    16    19 1   
    38    18    34 1   
    39    19    35 1   
    40    20    36 1   
@<TRIPOS>SUBSTRUCTURE
     1 3PU         1 TEMP              0 ****  ****    0 ROOT
