@<TRIPOS>MOLECULE
3PU
   37    40     1     0     0
SMALL
abcg2


@<TRIPOS>ATOM
      1 C7          -1.9560     1.1030    -0.6760 c3         1 3PU       0.107000
      2 C6           2.7360     1.0950     0.9950 cc         1 3PU      -0.141200
      3 C1           5.4850    -1.1410    -1.1900 ca         1 3PU      -0.074000
      4 C5           5.2110     0.3070     0.7530 ca         1 3PU      -0.040000
      5 C4          -6.6720     0.2100    -0.4840 cc         1 3PU      -0.270000
      6 C3          -6.1500     1.4640    -0.4750 cd         1 3PU       0.278900
      7 C2           4.1460    -1.0410    -1.5220 ca         1 3PU      -0.100000
      8 C8           5.9960    -0.4730    -0.0690 ca         1 3PU       0.095000
      9 C9           3.3620    -0.2570    -0.6940 ca         1 3PU       0.076100
     10 C10          3.8580     0.4130     0.4260 ca         1 3PU      -0.125800
     11 C11          1.6840     0.7950     0.2000 cd         1 3PU      -0.062100
     12 C12         -4.2900     0.3520    -0.1780 cc         1 3PU       0.399700
     13 C13         -2.5650     0.1350     1.5910 c          1 3PU       0.578000
     14 C14         -1.8330    -1.8890     0.8020 c          1 3PU       0.616000
     15 C15          0.2780     1.2220     0.3230 c          1 3PU       0.641300
     16 C16         -2.8400     0.0800     0.0770 c5         1 3PU      -0.032900
     17 N17         -4.7980     1.5320    -0.2990 nd         1 3PU      -0.615000
     18 N18         -1.9110    -1.0190     1.8850 ns         1 3PU      -0.480500
     19 N19         -2.4860    -1.2810    -0.2240 ns         1 3PU      -0.516900
     20 N20         -0.5620     0.7620    -0.6250 ns         1 3PU      -0.507900
     21 O21         -2.8880     1.0170     2.3390 o          1 3PU      -0.451000
     22 O22         -1.3040    -2.9730     0.8070 o          1 3PU      -0.531000
     23 O23         -0.0610     1.9430     1.2460 o          1 3PU      -0.563100
     24 O24          2.0410    -0.0220    -0.8270 os         1 3PU      -0.177200
     25 S25         -5.4240    -0.9420    -0.2720 ss         1 3PU       0.023600
     26 H1          -2.2630     1.1130    -1.7210 h1         1 3PU       0.087200
     27 H2          -2.1280     2.1000    -0.2730 h1         1 3PU       0.087200
     28 H3           2.7200     1.7220     1.8710 ha         1 3PU       0.235000
     29 H4           6.1430    -1.7420    -1.8020 ha         1 3PU       0.135000
     30 H5           5.6240     0.8140     1.6150 ha         1 3PU       0.140000
     31 H6          -7.7010    -0.0850    -0.6160 h4         1 3PU       0.165000
     32 H7          -6.7220     2.3720    -0.5990 h4         1 3PU       0.048100
     33 H8           3.7430    -1.5520    -2.3850 ha         1 3PU       0.137000
     34 H9          -1.6030    -1.2770     2.8130 hn         1 3PU       0.360500
     35 H10         -2.3810    -1.6180    -1.1700 hn         1 3PU       0.342500
     36 H11         -0.1970     0.2020    -1.3780 hn         1 3PU       0.330500
     37 CL2          7.6850    -0.6410     0.2870 cl         1 3PU      -0.196000
@<TRIPOS>BOND
     1     1    16 1   
     2     1    20 1   
     3     1    26 1   
     4     1    27 1   
     5     2    10 1   
     6     2    11 2   
     7     2    28 1   
     8     3     7 ar  
     9     3     8 ar  
    10     3    29 1   
    11     4     8 ar  
    12     4    10 ar  
    13     4    30 1   
    14     5     6 2   
    15     5    25 1   
    16     5    31 1   
    17     6    17 1   
    18     6    32 1   
    19     7     9 ar  
    20     7    33 1   
    21     8    37 1   
    22     9    10 ar  
    23     9    24 1   
    24    11    15 1   
    25    11    24 1   
    26    12    16 1   
    27    12    17 2   
    28    12    25 1   
    29    13    16 1   
    30    13    18 1   
    31    13    21 2   
    32    14    18 1   
    33    14    19 1   
    34    14    22 2   
    35    15    20 1   
    36    15    23 2   
    37    16    19 1   
    38    18    34 1   
    39    19    35 1   
    40    20    36 1   
@<TRIPOS>SUBSTRUCTURE
     1 3PU         1 TEMP              0 ****  ****    0 ROOT
