@<TRIPOS>MOLECULE
3PV
   75    77     1     0     0
SMALL
bcc


@<TRIPOS>ATOM
      1 C1          -4.1910     0.0660     1.4020 c6         1 3PV       0.310900
      2 C2          -5.1750    -0.0740     0.2350 c6         1 3PV       0.096100
      3 C3          -4.4600     0.0010    -1.1110 c6         1 3PV       0.112100
      4 C4          -3.5730     1.2380    -1.1720 c6         1 3PV       0.126100
      5 C5          -2.6390     1.2300     0.0340 c6         1 3PV       0.118100
      6 C11          0.4840     2.1680     0.8820 c5         1 3PV       0.344900
      7 C13          2.1260     1.4700    -0.6730 c5         1 3PV       0.083100
      8 C12          0.8420     0.9800    -0.0220 c5         1 3PV       0.086100
      9 C14          1.7760     2.9390    -0.9060 c5         1 3PV       0.071100
     10 C15          2.9780     3.8650    -1.0410 c3         1 3PV       0.150100
     11 C16          2.5350     5.2920    -1.3250 c3         1 3PV       0.109400
     12 O2          -5.8960    -1.2780     0.2820 oh         1 3PV      -0.579800
     13 O3          -5.3790     0.0820    -2.1750 oh         1 3PV      -0.609800
     14 C6          -1.7630     2.4650     0.1070 c3         1 3PV       0.137400
     15 O1          -3.4320    -1.0980     1.5210 os         1 3PV      -0.442600
     16 O4          -2.7740     1.2480    -2.3290 oh         1 3PV      -0.600800
     17 O5          -3.4000     1.2030     1.2280 os         1 3PV      -0.412600
     18 O11         -0.8510     2.3500     1.1850 os         1 3PV      -0.376600
     19 O13          2.4230     0.7560    -1.8410 oh         1 3PV      -0.592800
     20 O14          1.0110     3.3070     0.2350 os         1 3PV      -0.437600
     21 O15          3.8380     3.7760     0.0680 oh         1 3PV      -0.583800
     22 C21          0.9730    -1.3910     0.1130 c6         1 3PV       0.331900
     23 O21          0.9520    -0.1720     0.7700 os         1 3PV      -0.371600
     24 C22          2.1720    -2.2060     0.6140 c6         1 3PV       0.076700
     25 N22          3.4010    -1.5190     0.3220 ns         1 3PV      -0.559900
     26 C27          4.2060    -0.9670     1.2500 c          1 3PV       0.677100
     27 O27          4.0290    -1.0870     2.4540 o          1 3PV      -0.594100
     28 C28          5.3580    -0.1670     0.6940 c3         1 3PV      -0.184100
     29 C23          2.1440    -3.5870    -0.0300 c6         1 3PV       0.141100
     30 O23          3.1880    -4.3480     0.5140 oh         1 3PV      -0.577800
     31 C24          0.7840    -4.2380     0.1970 c6         1 3PV       0.075100
     32 O24          0.7800    -5.4470    -0.5300 oh         1 3PV      -0.600800
     33 C25         -0.3400    -3.3000    -0.2590 c6         1 3PV       0.089100
     34 C26         -1.7090    -3.8790     0.0570 c3         1 3PV       0.156400
     35 O26         -2.7730    -3.1020    -0.4220 oh         1 3PV      -0.602800
     36 O25         -0.2220    -2.0570     0.4090 os         1 3PV      -0.421600
     37 H1          -4.7410     0.2420     2.3370 h2         1 3PV       0.067700
     38 H2          -5.8470     0.7930     0.3020 h1         1 3PV       0.053700
     39 H3          -3.8110    -0.8780    -1.2310 h1         1 3PV       0.077700
     40 H4          -4.2100     2.1350    -1.1190 h1         1 3PV       0.050700
     41 H5          -1.9990     0.3380    -0.0340 h1         1 3PV       0.072700
     42 H6           0.9730     2.0390     1.8550 h2         1 3PV       0.111700
     43 H7           2.9400     1.4060     0.0610 h1         1 3PV       0.072700
     44 H8           0.0870     0.8400    -0.8100 h1         1 3PV       0.076700
     45 H9           1.1650     3.0180    -1.8180 h1         1 3PV       0.065700
     46 H10          3.5540     3.5140    -1.9050 h1         1 3PV       0.079700
     47 H11          1.8380     5.2750    -2.1740 h1         1 3PV       0.030700
     48 H12          1.9780     5.6840    -0.4640 h1         1 3PV       0.030700
     49 H13         -1.7020    -0.4220     2.4820 h1         1 3PV       0.042700
     50 H14         -3.0730    -0.8150     3.5480 h1         1 3PV       0.042700
     51 H15         -2.1650    -2.1080     2.7450 h1         1 3PV       0.042700
     52 H16         -6.6040    -1.1900     0.9270 ho         1 3PV       0.410000
     53 H17         -5.8540    -0.7530    -2.2320 ho         1 3PV       0.428000
     54 H18         -1.2640     2.6280    -0.8510 h1         1 3PV       0.063200
     55 H19         -2.3870     3.3450     0.2860 h1         1 3PV       0.063200
     56 H20         -3.3530     1.2350    -3.0990 ho         1 3PV       0.427000
     57 H21          3.3000     1.0040    -2.1500 ho         1 3PV       0.417000
     58 H22          3.3650     4.0910     0.8460 ho         1 3PV       0.417000
     59 H23          3.3870     6.9800    -1.7300 ho         1 3PV       0.407000
     60 H24          1.0550    -1.2560    -0.9780 h2         1 3PV       0.043700
     61 H25          2.0880    -2.3110     1.6980 h1         1 3PV       0.117700
     62 H26          3.6110    -1.3470    -0.6490 hn         1 3PV       0.309500
     63 H27          5.4610    -0.2410    -0.3870 hc         1 3PV       0.060700
     64 H28          5.2220     0.8850     0.9510 hc         1 3PV       0.060700
     65 H29          6.2900    -0.4940     1.1530 hc         1 3PV       0.060700
     66 H30          2.2750    -3.4620    -1.1190 h1         1 3PV       0.038700
     67 H31          3.1570    -5.2210     0.1100 ho         1 3PV       0.417000
     68 H32          0.6670    -4.4240     1.2750 h1         1 3PV       0.058700
     69 H33          0.2240    -6.0870    -0.0780 ho         1 3PV       0.414000
     70 H34         -0.2540    -3.1500    -1.3480 h1         1 3PV       0.061700
     71 H35         -1.7820    -4.8580    -0.4210 h1         1 3PV       0.041200
     72 H36         -1.7820    -4.0480     1.1400 h1         1 3PV       0.041200
     73 H37         -2.9400    -2.3790     0.1990 ho         1 3PV       0.440000
     74 O16          3.6740     6.0710    -1.6030 oh         1 3PV      -0.588800
     75 C7          -2.5470    -1.0960     2.6310 c3         1 3PV       0.123700
@<TRIPOS>BOND
     1     1     2 1   
     2     1    15 1   
     3     1    17 1   
     4     1    37 1   
     5     2     3 1   
     6     2    12 1   
     7     2    38 1   
     8     3     4 1   
     9     3    13 1   
    10     3    39 1   
    11     4     5 1   
    12     4    16 1   
    13     4    40 1   
    14     5    14 1   
    15     5    17 1   
    16     5    41 1   
    17     6     8 1   
    18     6    18 1   
    19     6    20 1   
    20     6    42 1   
    21     7     8 1   
    22     7     9 1   
    23     7    19 1   
    24     7    43 1   
    25     8    23 1   
    26     8    44 1   
    27     9    10 1   
    28     9    20 1   
    29     9    45 1   
    30    10    11 1   
    31    10    21 1   
    32    10    46 1   
    33    11    47 1   
    34    11    48 1   
    35    11    74 1   
    36    12    52 1   
    37    13    53 1   
    38    14    18 1   
    39    14    54 1   
    40    14    55 1   
    41    15    75 1   
    42    16    56 1   
    43    19    57 1   
    44    21    58 1   
    45    22    23 1   
    46    22    24 1   
    47    22    36 1   
    48    22    60 1   
    49    24    25 1   
    50    24    29 1   
    51    24    61 1   
    52    25    26 1   
    53    25    62 1   
    54    26    27 2   
    55    26    28 1   
    56    28    63 1   
    57    28    64 1   
    58    28    65 1   
    59    29    30 1   
    60    29    31 1   
    61    29    66 1   
    62    30    67 1   
    63    31    32 1   
    64    31    33 1   
    65    31    68 1   
    66    32    69 1   
    67    33    34 1   
    68    33    36 1   
    69    33    70 1   
    70    34    35 1   
    71    34    71 1   
    72    34    72 1   
    73    35    73 1   
    74    49    75 1   
    75    50    75 1   
    76    51    75 1   
    77    59    74 1   
@<TRIPOS>SUBSTRUCTURE
     1 3PV         1 TEMP              0 ****  ****    0 ROOT
