@<TRIPOS>MOLECULE
3PV
   75    77     1     0     0
SMALL
No Charge or Current Charge


@<TRIPOS>ATOM
      1 C1          -4.1490     0.0260     1.4200 c6         1 3PV       0.357300
      2 C2          -5.2410     0.0820     0.2950 c6         1 3PV       0.119300
      3 C3          -4.5900     0.4040    -1.0840 c6         1 3PV       0.135300
      4 C4          -3.6950     1.6730    -0.9880 c6         1 3PV       0.149300
      5 C5          -2.6480     1.4650     0.1450 c6         1 3PV       0.141300
      6 C11          0.6600     2.1830     1.0270 c5         1 3PV       0.391300
      7 C13          1.9730     1.4380    -0.8690 c5         1 3PV       0.106300
      8 C12          0.8270     0.9460     0.0730 c5         1 3PV       0.109300
      9 C14          1.5230     2.9200    -1.0280 c5         1 3PV       0.094300
     10 C15          2.5540     3.8990    -1.6610 c3         1 3PV       0.173300
     11 C16          1.9990     5.3510    -1.7900 c3         1 3PV       0.132600
     12 O2          -5.9980    -1.1490     0.2110 oh         1 3PV      -0.702000
     13 O3          -5.6050     0.5730    -2.0920 oh         1 3PV      -0.672000
     14 C6          -1.7240     2.7080     0.3420 c3         1 3PV       0.160600
     15 O1          -3.3000    -1.1350     1.2790 os         1 3PV      -0.489000
     16 O4          -3.0720     1.9220    -2.2600 oh         1 3PV      -0.723000
     17 O5          -3.3380     1.2200     1.3970 os         1 3PV      -0.459000
     18 O11         -0.7320     2.4530     1.3660 os         1 3PV      -0.423000
     19 O13          2.0280     0.7300    -2.1190 oh         1 3PV      -0.715000
     20 O14          1.2110     3.3260     0.3270 os         1 3PV      -0.484000
     21 O15          3.7750     3.8860    -0.8890 oh         1 3PV      -0.706000
     22 C21          1.3550    -1.4590     0.2140 c6         1 3PV       0.378300
     23 O21          1.3160    -0.1750     0.8580 os         1 3PV      -0.418000
     24 C22          2.3470    -2.4160     0.9420 c6         1 3PV       0.076700
     25 N22          3.7330    -1.8810     0.9730 ns         1 3PV      -0.492900
     26 C27          4.2550    -1.0580     1.9430 c          1 3PV       0.610100
     27 O27          3.6230    -0.7160     2.9310 o          1 3PV      -0.594100
     28 C28          5.6910    -0.6170     1.6980 c3         1 3PV      -0.184100
     29 C23          2.2930    -3.7870     0.2070 c6         1 3PV       0.164300
     30 O23          3.1500    -4.7550     0.8320 oh         1 3PV      -0.640000
     31 C24          0.8380    -4.3380     0.1560 c6         1 3PV       0.098300
     32 O24          0.8140    -5.5880    -0.5690 oh         1 3PV      -0.723000
     33 C25         -0.0980    -3.2670    -0.4900 c6         1 3PV       0.112300
     34 C26         -1.5990    -3.7020    -0.4780 c3         1 3PV       0.179600
     35 O26         -2.4970    -2.6420    -0.8450 oh         1 3PV      -0.725000
     36 O25          0.0240    -2.0170     0.2340 os         1 3PV      -0.468000
     37 H1          -4.6650    -0.0310     2.3900 h2         1 3PV       0.067700
     38 H2          -5.9210     0.9100     0.5470 h1         1 3PV       0.053700
     39 H3          -3.9410    -0.4430    -1.3550 h1         1 3PV       0.077700
     40 H4          -4.3330     2.5270    -0.7140 h1         1 3PV       0.050700
     41 H5          -2.0370     0.5890    -0.0960 h1         1 3PV       0.072700
     42 H6           1.2340     2.0190     1.9490 h2         1 3PV       0.111700
     43 H7           2.9400     1.3820    -0.3490 h1         1 3PV       0.072700
     44 H8          -0.0750     0.6750    -0.4820 h1         1 3PV       0.076700
     45 H9           0.6070     2.9680    -1.6310 h1         1 3PV       0.065700
     46 H10          2.7570     3.5400    -2.6800 h1         1 3PV       0.079700
     47 H11          1.0330     5.3110    -2.3120 h1         1 3PV       0.030700
     48 H12          1.8100     5.7580    -0.7870 h1         1 3PV       0.030700
     49 H13         -1.6390    -0.5480     2.4250 h1         1 3PV       0.042700
     50 H14         -2.9060    -1.4210     3.3220 h1         1 3PV       0.042700
     51 H15         -1.8310    -2.3000     2.2190 h1         1 3PV       0.042700
     52 H16         -5.3630    -1.8780     0.4080 ho         1 3PV       0.509000
     53 H17         -6.2960    -0.0960    -1.8770 ho         1 3PV       0.467000
     54 H18         -1.2610     2.9750    -0.6140 h1         1 3PV       0.063200
     55 H19         -2.3570     3.5530     0.6400 h1         1 3PV       0.063200
     56 H20         -3.7760     1.7260    -2.9260 ho         1 3PV       0.526000
     57 H21          2.8860     0.9540    -2.5490 ho         1 3PV       0.516000
     58 H22          3.5120     4.1340     0.0270 ho         1 3PV       0.516000
     59 H23          2.5170     7.1060    -2.5150 ho         1 3PV       0.446000
     60 H24          1.6870    -1.3430    -0.8260 h2         1 3PV       0.043700
     61 H25          1.9950    -2.5530     1.9740 h1         1 3PV       0.117700
     62 H26          4.3610    -2.1360     0.2190 hn         1 3PV       0.309500
     63 H27          5.7520    -0.1300     0.7180 hc         1 3PV       0.060700
     64 H28          6.0760     0.0290     2.4950 hc         1 3PV       0.060700
     65 H29          6.3190    -1.5040     1.5570 hc         1 3PV       0.060700
     66 H30          2.6280    -3.6270    -0.8300 h1         1 3PV       0.038700
     67 H31          2.8550    -5.6190     0.4650 ho         1 3PV       0.456000
     68 H32          0.5020    -4.5000     1.1930 h1         1 3PV       0.058700
     69 H33          0.0380    -6.1090    -0.2510 ho         1 3PV       0.513000
     70 H34          0.2020    -3.0990    -1.5350 h1         1 3PV       0.061700
     71 H35         -1.7160    -4.5450    -1.1720 h1         1 3PV       0.041200
     72 H36         -1.8480    -4.0720     0.5260 h1         1 3PV       0.041200
     73 H37         -2.5600    -2.0470    -0.0510 ho         1 3PV       0.539000
     74 O16          2.9070     6.2040    -2.5130 oh         1 3PV      -0.651000
     75 C7          -2.3760    -1.3600     2.3630 c3         1 3PV       0.146900
@<TRIPOS>BOND
     1     1     2 1   
     2     1    15 1   
     3     1    17 1   
     4     1    37 1   
     5     2     3 1   
     6     2    12 1   
     7     2    38 1   
     8     3     4 1   
     9     3    13 1   
    10     3    39 1   
    11     4     5 1   
    12     4    16 1   
    13     4    40 1   
    14     5    14 1   
    15     5    17 1   
    16     5    41 1   
    17     6     8 1   
    18     6    18 1   
    19     6    20 1   
    20     6    42 1   
    21     7     8 1   
    22     7     9 1   
    23     7    19 1   
    24     7    43 1   
    25     8    23 1   
    26     8    44 1   
    27     9    10 1   
    28     9    20 1   
    29     9    45 1   
    30    10    11 1   
    31    10    21 1   
    32    10    46 1   
    33    11    47 1   
    34    11    48 1   
    35    11    74 1   
    36    12    52 1   
    37    13    53 1   
    38    14    18 1   
    39    14    54 1   
    40    14    55 1   
    41    15    75 1   
    42    16    56 1   
    43    19    57 1   
    44    21    58 1   
    45    22    23 1   
    46    22    24 1   
    47    22    36 1   
    48    22    60 1   
    49    24    25 1   
    50    24    29 1   
    51    24    61 1   
    52    25    26 1   
    53    25    62 1   
    54    26    27 2   
    55    26    28 1   
    56    28    63 1   
    57    28    64 1   
    58    28    65 1   
    59    29    30 1   
    60    29    31 1   
    61    29    66 1   
    62    30    67 1   
    63    31    32 1   
    64    31    33 1   
    65    31    68 1   
    66    32    69 1   
    67    33    34 1   
    68    33    36 1   
    69    33    70 1   
    70    34    35 1   
    71    34    71 1   
    72    34    72 1   
    73    35    73 1   
    74    49    75 1   
    75    50    75 1   
    76    51    75 1   
    77    59    74 1   
@<TRIPOS>SUBSTRUCTURE
     1 3PV         1 TEMP              0 ****  ****    0 ROOT
