@<TRIPOS>MOLECULE
3PW
   41    44     1     0     0
SMALL
abcg2


@<TRIPOS>ATOM
      1 C4           6.0930     1.5740     1.1150 cc         1 3PW       0.235900
      2 C5           6.5240     0.4140     0.5400 cd         1 3PW      -0.215000
      3 C6          -5.0840     0.2180    -0.9000 ca         1 3PW      -0.040000
      4 C7          -2.6260     1.0760    -1.0580 cc         1 3PW      -0.143200
      5 C8           1.9910     1.2800     0.8020 c3         1 3PW       0.106000
      6 C10         -3.2910    -0.2240     0.6560 ca         1 3PW       0.076100
      7 C13          4.3460     0.5390     0.4660 cd         1 3PW       0.388800
      8 C15          1.8580    -1.8000    -0.3550 c          1 3PW       0.612000
      9 C17          2.9170     0.2030     0.1790 c5         1 3PW      -0.016900
     10 C2          -5.4070    -1.1560     1.0890 ca         1 3PW      -0.074000
     11 C3          -4.0900    -0.9980     1.4790 ca         1 3PW      -0.099000
     12 C9          -5.8840    -0.5530    -0.0830 ca         1 3PW       0.095000
     13 C11         -3.7530     0.3830    -0.5140 ca         1 3PW      -0.125800
     14 C12         -1.6050     0.8440    -0.2030 cd         1 3PW      -0.061100
     15 C14          2.6520     0.1170    -1.3310 c          1 3PW       0.568000
     16 C16         -0.2060     1.3040    -0.2850 c          1 3PW       0.640300
     17 N18          4.7340     1.6380     1.0610 nc         1 3PW      -0.662000
     18 N19          1.9590    -1.0370    -1.5180 ns         1 3PW      -0.486500
     19 N20          2.5340    -1.1210     0.6030 ns         1 3PW      -0.516900
     20 N21          0.6040     0.9110     0.7160 ns         1 3PW      -0.508900
     21 N22          5.4010    -0.2420     0.1240 na         1 3PW      -0.142500
     22 O23          3.0050     0.9130    -2.1610 o          1 3PW      -0.459000
     23 O24          1.2960    -2.8650    -0.2650 o          1 3PW      -0.537000
     24 O25          0.1520     1.9900    -1.2270 o          1 3PW      -0.566100
     25 O26         -1.9860     0.0590     0.8410 os         1 3PW      -0.175200
     26 H1           6.6860     2.3570     1.5600 h4         1 3PW       0.044100
     27 H2           7.5080     0.0020     0.3930 h4         1 3PW       0.160000
     28 H3          -5.4690     0.6750    -1.8010 ha         1 3PW       0.140000
     29 H4          -2.5870     1.6650    -1.9600 ha         1 3PW       0.235000
     30 H5           2.2510     1.3840     1.8540 h1         1 3PW       0.093200
     31 H6           2.1650     2.2420     0.3250 h1         1 3PW       0.093200
     32 H7           4.8380    -1.5010    -1.4650 h1         1 3PW       0.058367
     33 H8           6.4200    -1.8040    -0.7680 h1         1 3PW       0.058367
     34 H9           4.9740    -2.3000     0.1150 h1         1 3PW       0.058367
     35 H10         -6.0750    -1.7530     1.6940 ha         1 3PW       0.134000
     36 H11         -3.7140    -1.4590     2.3810 ha         1 3PW       0.138000
     37 H12          1.6250    -1.3650    -2.4140 hn         1 3PW       0.358500
     38 H13          2.4600    -1.3790     1.5760 hn         1 3PW       0.344500
     39 H14          0.2190     0.3860     1.4860 hn         1 3PW       0.331500
     40 C1           5.3950    -1.5340    -0.5310 c3         1 3PW       0.055900
     41 CL2         -7.5480    -0.7920    -0.5120 cl         1 3PW      -0.197000
@<TRIPOS>BOND
     1     1     2 2   
     2     1    17 1   
     3     1    26 1   
     4     2    21 1   
     5     2    27 1   
     6     3    12 ar  
     7     3    13 ar  
     8     3    28 1   
     9     4    13 1   
    10     4    14 2   
    11     4    29 1   
    12     5     9 1   
    13     5    20 1   
    14     5    30 1   
    15     5    31 1   
    16     6    11 ar  
    17     6    13 ar  
    18     6    25 1   
    19     7     9 1   
    20     7    17 2   
    21     7    21 1   
    22     8    18 1   
    23     8    19 1   
    24     8    23 2   
    25     9    15 1   
    26     9    19 1   
    27    10    11 ar  
    28    10    12 ar  
    29    10    35 1   
    30    11    36 1   
    31    12    41 1   
    32    14    16 1   
    33    14    25 1   
    34    15    18 1   
    35    15    22 2   
    36    16    20 1   
    37    16    24 2   
    38    18    37 1   
    39    19    38 1   
    40    20    39 1   
    41    21    40 1   
    42    32    40 1   
    43    33    40 1   
    44    34    40 1   
@<TRIPOS>SUBSTRUCTURE
     1 3PW         1 TEMP              0 ****  ****    0 ROOT
