@<TRIPOS>MOLECULE
3PW
   41    44     1     0     0
SMALL
No Charge or Current Charge


@<TRIPOS>ATOM
      1 C4           6.1870     1.6050     1.0380 cc         1 3PW       0.235900
      2 C5           6.6450     0.4700     0.4340 cd         1 3PW      -0.215000
      3 C6          -5.1820     0.3430    -0.8800 ca         1 3PW      -0.040000
      4 C7          -2.7530     1.2470    -0.9950 cc         1 3PW      -0.143200
      5 C8           1.9860     1.3010     0.8110 c3         1 3PW       0.106000
      6 C10         -3.3740    -0.2440     0.6200 ca         1 3PW       0.076100
      7 C13          4.4070     0.5400     0.4350 cd         1 3PW       0.388800
      8 C15          2.0430    -1.9650    -0.1400 c          1 3PW       0.612000
      9 C17          2.9280     0.2010     0.2380 c5         1 3PW      -0.016900
     10 C2          -5.5290    -1.2440     0.9690 ca         1 3PW      -0.074000
     11 C3          -4.1800    -1.1090     1.3670 ca         1 3PW      -0.099000
     12 C9          -6.0250    -0.5220    -0.1460 ca         1 3PW       0.095000
     13 C11         -3.8480     0.4590    -0.4640 ca         1 3PW      -0.125800
     14 C12         -1.6780     0.9480    -0.1660 cd         1 3PW      -0.061100
     15 C14          2.5890    -0.0280    -1.2650 c          1 3PW       0.568000
     16 C16         -0.2940     1.4870    -0.2720 c          1 3PW       0.640300
     17 N18          4.8230     1.6480     1.0410 nc         1 3PW      -0.662000
     18 N19          2.0900    -1.2840    -1.2870 ns         1 3PW      -0.486500
     19 N20          2.5680    -1.1390     0.8040 ns         1 3PW      -0.516900
     20 N21          0.5500     0.9960     0.6980 ns         1 3PW      -0.508900
     21 N22          5.5110    -0.2220     0.0460 na         1 3PW      -0.142500
     22 O23          2.7620     0.6830    -2.2410 o          1 3PW      -0.459000
     23 O24          1.6340    -3.0970     0.0230 o          1 3PW      -0.537000
     24 O25          0.0710     2.2800    -1.1280 o          1 3PW      -0.566100
     25 O26         -2.0580     0.0480     0.8060 os         1 3PW      -0.175200
     26 H1           6.7620     2.4090     1.4810 h4         1 3PW       0.044100
     27 H2           7.6570     0.1210     0.2630 h4         1 3PW       0.160000
     28 H3          -5.5570     0.8980    -1.7360 ha         1 3PW       0.140000
     29 H4          -2.7480     1.9230    -1.8480 ha         1 3PW       0.235000
     30 H5           2.2180     1.4430     1.8750 h1         1 3PW       0.093200
     31 H6           2.1980     2.2550     0.3060 h1         1 3PW       0.093200
     32 H7           5.0170    -1.4290    -1.6180 h1         1 3PW       0.058367
     33 H8           6.5320    -1.8740    -0.7870 h1         1 3PW       0.058367
     34 H9           4.9620    -2.2620    -0.0320 h1         1 3PW       0.058367
     35 H10         -6.1930    -1.9050     1.5210 ha         1 3PW       0.134000
     36 H11         -3.7820    -1.6530     2.2200 ha         1 3PW       0.138000
     37 H12          1.7770    -1.7040    -2.1480 hn         1 3PW       0.358500
     38 H13          2.6340    -1.4470     1.7680 hn         1 3PW       0.344500
     39 H14          0.1370     0.3460     1.3570 hn         1 3PW       0.331500
     40 C1           5.5020    -1.5250    -0.6400 c3         1 3PW       0.055900
     41 Cl2         -7.7080    -0.7070    -0.6230 cl         1 3PW      -0.197000
@<TRIPOS>BOND
     1     1     2 2   
     2     1    17 1   
     3     1    26 1   
     4     2    21 1   
     5     2    27 1   
     6     3    12 ar  
     7     3    13 ar  
     8     3    28 1   
     9     4    13 1   
    10     4    14 2   
    11     4    29 1   
    12     5     9 1   
    13     5    20 1   
    14     5    30 1   
    15     5    31 1   
    16     6    11 ar  
    17     6    13 ar  
    18     6    25 1   
    19     7     9 1   
    20     7    17 2   
    21     7    21 1   
    22     8    18 1   
    23     8    19 1   
    24     8    23 2   
    25     9    15 1   
    26     9    19 1   
    27    10    11 ar  
    28    10    12 ar  
    29    10    35 1   
    30    11    36 1   
    31    12    41 1   
    32    14    16 1   
    33    14    25 1   
    34    15    18 1   
    35    15    22 2   
    36    16    20 1   
    37    16    24 2   
    38    18    37 1   
    39    19    38 1   
    40    20    39 1   
    41    21    40 1   
    42    32    40 1   
    43    33    40 1   
    44    34    40 1   
@<TRIPOS>SUBSTRUCTURE
     1 3PW         1 TEMP              0 ****  ****    0 ROOT
