@<TRIPOS>MOLECULE
3PX
   26    26     1     0     0
SMALL
abcg2


@<TRIPOS>ATOM
      1 C           -1.5400     1.2660     0.8710 c          1 3PX       0.729000
      2 N           -2.2350    -1.0090     0.1340 n7         1 3PX      -0.830400
      3 O           -2.1690     1.7580    -0.0890 o          1 3PX      -0.727500
      4 CA          -1.1790    -0.2240     0.7500 c5         1 3PX       0.023500
      5 CB           0.0370    -0.4520    -0.1610 c5         1 3PX       0.140300
      6 CD          -1.5970    -2.2230    -0.3850 c5         1 3PX       0.147800
      7 CG          -0.0840    -1.9360    -0.5250 c5         1 3PX      -0.149400
      8 OB1          1.2190    -0.0780     0.4950 os         1 3PX      -0.424000
      9 CB2          2.4210    -0.2350    -0.2410 c3         1 3PX       0.176300
     10 CB3          2.5040     0.7100    -1.4330 c3         1 3PX      -0.101100
     11 CB4          3.5610     0.0040     0.7320 c3         1 3PX      -0.101100
     12 OXT         -1.1460     1.8620     1.8900 o          1 3PX      -0.727500
     13 HA          -0.9470    -0.6340     1.7410 h1         1 3PX       0.061700
     14 HB          -0.1140     0.1540    -1.0660 h1         1 3PX       0.043700
     15 HD          -1.7550    -3.0550     0.3060 h1         1 3PX       0.022700
     16 HDA         -2.0560    -2.5090    -1.3310 h1         1 3PX       0.022700
     17 HG           0.2890    -2.1600    -1.5250 hc         1 3PX       0.028700
     18 HGA          0.4950    -2.5360     0.1820 hc         1 3PX       0.028700
     19 HB2          2.4940    -1.2680    -0.6120 h1         1 3PX       0.010700
     20 HB3          3.4600     0.5840    -1.9420 hc         1 3PX       0.033867
     21 HB3A         1.7210     0.5230    -2.1700 hc         1 3PX       0.033867
     22 HB3B         2.4270     1.7500    -1.1110 hc         1 3PX       0.033867
     23 HB4          3.5190    -0.6900     1.5730 hc         1 3PX       0.033867
     24 HB4A         4.5200    -0.1350     0.2320 hc         1 3PX       0.033867
     25 HB4B         3.5350     1.0220     1.1260 hc         1 3PX       0.033867
     26 HN          -2.5950    -0.4600    -0.6370 hn         1 3PX       0.422000
@<TRIPOS>BOND
     1     1     3 1   
     2     1     4 1   
     3     1    12 1   
     4     2     4 1   
     5     2     6 1   
     6     2    26 1   
     7     4     5 1   
     8     4    13 1   
     9     5     7 1   
    10     5     8 1   
    11     5    14 1   
    12     6     7 1   
    13     6    15 1   
    14     6    16 1   
    15     7    17 1   
    16     7    18 1   
    17     8     9 1   
    18     9    10 1   
    19     9    11 1   
    20     9    19 1   
    21    10    20 1   
    22    10    21 1   
    23    10    22 1   
    24    11    23 1   
    25    11    24 1   
    26    11    25 1   
@<TRIPOS>SUBSTRUCTURE
     1 3PX         1 TEMP              0 ****  ****    0 ROOT
