@<TRIPOS>MOLECULE
3PX
   26    26     1     0     0
SMALL
No Charge or Current Charge


@<TRIPOS>ATOM
      1 C           -1.7500     1.2500     0.5580 c          1 3PX       0.729000
      2 N           -2.0600    -1.3640     0.6760 n7         1 3PX      -0.830400
      3 O           -2.6310     1.3600    -0.2870 o          1 3PX      -0.727500
      4 CA          -1.1260    -0.1740     0.8430 c5         1 3PX       0.023500
      5 CB           0.0330    -0.3890    -0.1860 c5         1 3PX       0.140300
      6 CD          -1.6040    -2.0570    -0.5460 c5         1 3PX       0.147800
      7 CG          -0.0700    -1.9090    -0.4770 c5         1 3PX      -0.149400
      8 OB1          1.2960    -0.1080     0.4760 os         1 3PX      -0.424000
      9 CB2          2.5270    -0.3100    -0.2490 c3         1 3PX       0.176300
     10 CB3          2.5980     0.6760    -1.4380 c3         1 3PX      -0.101100
     11 CB4          3.6730    -0.0940     0.7580 c3         1 3PX      -0.101100
     12 OXT         -1.4380     2.1910     1.2770 o          1 3PX      -0.727500
     13 HA          -0.7360    -0.1590     1.8690 h1         1 3PX       0.061700
     14 HB          -0.0940     0.2240    -1.0890 h1         1 3PX       0.043700
     15 HD          -1.9290    -3.1060    -0.5650 h1         1 3PX       0.022700
     16 HDA         -2.0020    -1.5590    -1.4420 h1         1 3PX       0.022700
     17 HG           0.4160    -2.1930    -1.4170 hc         1 3PX       0.028700
     18 HGA          0.3600    -2.5200     0.3270 hc         1 3PX       0.028700
     19 HB2          2.5940    -1.3380    -0.6300 h1         1 3PX       0.010700
     20 HB3          3.5920     0.6470    -1.8980 hc         1 3PX       0.033867
     21 HB3A         1.8700     0.4130    -2.2130 hc         1 3PX       0.033867
     22 HB3B         2.4040     1.7030    -1.1060 hc         1 3PX       0.033867
     23 HB4          3.5910    -0.8030     1.5900 hc         1 3PX       0.033867
     24 HB4A         4.6440    -0.2510     0.2740 hc         1 3PX       0.033867
     25 HB4B         3.6500     0.9240     1.1640 hc         1 3PX       0.033867
     26 HN          -3.0240    -1.0290     0.5370 hn         1 3PX       0.422000
@<TRIPOS>BOND
     1     1     3 1   
     2     1     4 1   
     3     1    12 1   
     4     2     4 1   
     5     2     6 1   
     6     2    26 1   
     7     4     5 1   
     8     4    13 1   
     9     5     7 1   
    10     5     8 1   
    11     5    14 1   
    12     6     7 1   
    13     6    15 1   
    14     6    16 1   
    15     7    17 1   
    16     7    18 1   
    17     8     9 1   
    18     9    10 1   
    19     9    11 1   
    20     9    19 1   
    21    10    20 1   
    22    10    21 1   
    23    10    22 1   
    24    11    23 1   
    25    11    24 1   
    26    11    25 1   
@<TRIPOS>SUBSTRUCTURE
     1 3PX         1 TEMP              0 ****  ****    0 ROOT
