@<TRIPOS>MOLECULE
3PY
   10     9     1     0     0
SMALL
bcc


@<TRIPOS>ATOM
      1 C1           0.2210     0.0190    -1.1770 c          1 3PY       0.859600
      2 O1           1.4620     0.0160    -1.2590 o          1 3PY      -0.803800
      3 O2          -0.6220     0.0250    -2.0820 o          1 3PY      -0.803800
      4 C2          -0.3390     0.0140     0.2710 c          1 3PY       0.425100
      5 O3          -1.5240     0.0400     0.4960 o          1 3PY      -0.537100
      6 C3           0.6790    -0.0240     1.3810 c3         1 3PY       0.006400
      7 O4           0.0270    -0.0280     2.6200 oh         1 3PY      -0.590800
      8 H31          1.3470     0.8390     1.2540 h1         1 3PY       0.038200
      9 H32          1.3100    -0.9110     1.2290 h1         1 3PY       0.038200
     10 HO4          0.7000    -0.0570     3.3040 ho         1 3PY       0.368000
@<TRIPOS>BOND
     1     1     2 1   
     2     1     3 1   
     3     1     4 1   
     4     4     5 2   
     5     4     6 1   
     6     6     7 1   
     7     6     8 1   
     8     6     9 1   
     9     7    10 1   
@<TRIPOS>SUBSTRUCTURE
     1 3PY         1 TEMP              0 ****  ****    0 ROOT
