@<TRIPOS>MOLECULE
3PY
   10     9     1     0     0
SMALL
No Charge or Current Charge


@<TRIPOS>ATOM
      1 C1           0.2300     0.0200    -1.2360 c          1 3PY       0.649000
      2 O1           1.4510    -0.0010    -1.3680 o          1 3PY      -0.698500
      3 O2          -0.5410     0.0470    -2.1950 o          1 3PY      -0.698500
      4 C2          -0.3900     0.0110     0.2580 c          1 3PY       0.425100
      5 O3          -1.6100     0.0310     0.4690 o          1 3PY      -0.537100
      6 C3           0.6550    -0.0240     1.4150 c3         1 3PY       0.029600
      7 O4           0.0710    -0.0310     2.7430 oh         1 3PY      -0.653000
      8 H31          1.3090     0.8500     1.2920 h1         1 3PY       0.038200
      9 H32          1.2760    -0.9170     1.2690 h1         1 3PY       0.038200
     10 HO4          0.8110    -0.0530     3.3910 ho         1 3PY       0.407000
@<TRIPOS>BOND
     1     1     2 1   
     2     1     3 1   
     3     1     4 1   
     4     4     5 2   
     5     4     6 1   
     6     6     7 1   
     7     6     8 1   
     8     6     9 1   
     9     7    10 1   
@<TRIPOS>SUBSTRUCTURE
     1 3PY         1 TEMP              0 ****  ****    0 ROOT
