@<TRIPOS>MOLECULE
3PZ
   67    71     1     0     0
SMALL
No Charge or Current Charge


@<TRIPOS>ATOM
      1 C1           1.2770     1.6430    -0.7810 ca         1 3PZ       0.374000
      2 N1          -0.7650    -0.6750    -0.6630 n3         1 3PZ      -0.760500
      3 O1          -1.3670    -0.7450     1.8200 o          1 3PZ      -0.538500
      4 S1          -0.6620    -1.5360     0.8070 sy         1 3PZ       1.199600
      5 C2           1.4920     0.3220    -1.2750 ca         1 3PZ      -0.192300
      6 N2          -0.0170     2.1870    -0.5390 nh         1 3PZ      -0.821400
      7 O2          -1.0410    -2.9230     0.5110 o          1 3PZ      -0.538500
      8 C3           2.8140    -0.1360    -1.4790 ca         1 3PZ      -0.025000
      9 N3          -3.4090     2.8600     2.4210 nc         1 3PZ      -0.664000
     10 C4           3.9190     0.6810    -1.1940 ca         1 3PZ      -0.079000
     11 N4          -2.6370     4.1170     0.7500 na         1 3PZ      -0.166500
     12 C5           3.7110     1.9810    -0.7160 ca         1 3PZ      -0.025000
     13 N5           6.3360    -0.2140    -1.5610 n1         1 3PZ      -0.464000
     14 C6           2.4040     2.4520    -0.5200 ca         1 3PZ      -0.200000
     15 C7           0.3730    -0.6760    -1.5930 c3         1 3PZ       0.266100
     16 C8          -1.8030     0.3730    -0.8530 c3         1 3PZ       0.231500
     17 C9          -1.1920     1.7260    -1.3260 c3         1 3PZ       0.205800
     18 C10         -0.2280     3.2190     0.5080 c3         1 3PZ       0.302100
     19 C11         -1.6100     3.2570     1.1130 cd         1 3PZ      -0.247300
     20 C12         -2.1150     2.5140     2.1430 cc         1 3PZ       0.266900
     21 C13         -3.7190     3.8300     1.5690 cd         1 3PZ       0.402400
     22 C15         -2.9230    -0.0850    -1.8190 c3         1 3PZ      -0.029100
     23 C16         -5.2600    -3.4020    -0.2630 ca         1 3PZ      -0.103000
     24 C17         -5.3960    -2.1200     0.2970 ca         1 3PZ      -0.102500
     25 C18         -4.6400    -1.0480    -0.2080 ca         1 3PZ      -0.097000
     26 C19         -3.7430    -1.2510    -1.2760 ca         1 3PZ      -0.089300
     27 C20         -3.6120    -2.5380    -1.8340 ca         1 3PZ      -0.097000
     28 C21         -4.3680    -3.6100    -1.3280 ca         1 3PZ      -0.102500
     29 C22          3.8330    -1.2450     1.8100 ca         1 3PZ       0.194100
     30 C23          2.9590    -0.2040     2.1560 ca         1 3PZ      -0.201500
     31 C24          1.5890    -0.2970     1.8660 ca         1 3PZ       0.030500
     32 C25          1.0870    -1.4430     1.2200 ca         1 3PZ      -0.338500
     33 C26          1.9550    -2.4980     0.8810 ca         1 3PZ       0.030500
     34 C27          3.3260    -2.3980     1.1730 ca         1 3PZ      -0.201500
     35 C28          6.1540    -2.0780     1.7660 c3         1 3PZ       0.144900
     36 C29          5.2530     0.1870    -1.3900 cg         1 3PZ       0.332000
     37 H3           2.9850    -1.1450    -1.8490 ha         1 3PZ       0.124000
     38 H5           4.5570     2.6290    -0.4980 ha         1 3PZ       0.121000
     39 H6           2.2810     3.4700    -0.1660 ha         1 3PZ       0.119000
     40 H7           0.7970    -1.6890    -1.6370 h1         1 3PZ       0.069200
     41 H7A          0.0200    -0.4690    -2.6120 h1         1 3PZ       0.069200
     42 H8          -2.2960     0.6010     0.0990 h1         1 3PZ       0.091700
     43 H9          -1.9830     2.4860    -1.3270 h1         1 3PZ       0.053700
     44 H9A         -0.8910     1.6280    -2.3770 h1         1 3PZ       0.053700
     45 H10          0.4770     3.0460     1.3330 h1         1 3PZ       0.054200
     46 H10A         0.0050     4.2100     0.0940 h1         1 3PZ       0.054200
     47 H12         -1.6200     1.7430     2.7190 h4         1 3PZ       0.045100
     48 H13         -4.6630     4.3580     1.4950 h5         1 3PZ       0.057100
     49 H14         -2.0790     4.7860    -1.1780 h1         1 3PZ       0.055700
     50 H14A        -3.6160     5.4570    -0.5620 h1         1 3PZ       0.055700
     51 H14B        -2.0580     6.0380     0.0980 h1         1 3PZ       0.055700
     52 H15         -3.5940     0.7620    -2.0090 hc         1 3PZ       0.047700
     53 H15A        -2.4810    -0.3410    -2.7890 hc         1 3PZ       0.047700
     54 H16         -5.8440    -4.2320     0.1290 ha         1 3PZ       0.111000
     55 H17         -6.0850    -1.9580     1.1230 ha         1 3PZ       0.113000
     56 H18         -4.7510    -0.0600     0.2330 ha         1 3PZ       0.109500
     57 H20         -2.9190    -2.7100    -2.6540 ha         1 3PZ       0.109500
     58 H21         -4.2600    -4.6020    -1.7610 ha         1 3PZ       0.113000
     59 H23          3.3480     0.6860     2.6420 ha         1 3PZ       0.126500
     60 H24          0.9270     0.5290     2.1230 ha         1 3PZ       0.132500
     61 H26          1.5780    -3.3890     0.3800 ha         1 3PZ       0.132500
     62 H27          3.9770    -3.2210     0.8940 ha         1 3PZ       0.126500
     63 H28          6.1790    -2.2450     0.6820 h1         1 3PZ       0.046367
     64 H28A         7.1520    -1.7470     2.0810 h1         1 3PZ       0.046367
     65 H28B         5.9390    -3.0310     2.2650 h1         1 3PZ       0.046367
     66 C14         -2.5950     5.1620    -0.2870 c3         1 3PZ       0.053900
     67 O3           5.1700    -1.0860     2.1090 os         1 3PZ      -0.338100
@<TRIPOS>BOND
     1     1     5 ar  
     2     1     6 1   
     3     1    14 ar  
     4     2     4 1   
     5     2    15 1   
     6     2    16 1   
     7     3     4 2   
     8     4     7 2   
     9     4    32 1   
    10     5     8 ar  
    11     5    15 1   
    12     6    17 1   
    13     6    18 1   
    14     8    10 ar  
    15     8    37 1   
    16     9    20 1   
    17     9    21 2   
    18    10    12 ar  
    19    10    36 1   
    20    11    19 1   
    21    11    21 1   
    22    11    66 1   
    23    12    14 ar  
    24    12    38 1   
    25    13    36 3   
    26    14    39 1   
    27    15    40 1   
    28    15    41 1   
    29    16    17 1   
    30    16    22 1   
    31    16    42 1   
    32    17    43 1   
    33    17    44 1   
    34    18    19 1   
    35    18    45 1   
    36    18    46 1   
    37    19    20 2   
    38    20    47 1   
    39    21    48 1   
    40    22    26 1   
    41    22    52 1   
    42    22    53 1   
    43    23    24 ar  
    44    23    28 ar  
    45    23    54 1   
    46    24    25 ar  
    47    24    55 1   
    48    25    26 ar  
    49    25    56 1   
    50    26    27 ar  
    51    27    28 ar  
    52    27    57 1   
    53    28    58 1   
    54    29    30 ar  
    55    29    34 ar  
    56    29    67 1   
    57    30    31 ar  
    58    30    59 1   
    59    31    32 ar  
    60    31    60 1   
    61    32    33 ar  
    62    33    34 ar  
    63    33    61 1   
    64    34    62 1   
    65    35    63 1   
    66    35    64 1   
    67    35    65 1   
    68    35    67 1   
    69    49    66 1   
    70    50    66 1   
    71    51    66 1   
@<TRIPOS>SUBSTRUCTURE
     1 3PZ         1 TEMP              0 ****  ****    0 ROOT
