@<TRIPOS>MOLECULE
3PZ
   67    71     1     0     0
SMALL
abcg2


@<TRIPOS>ATOM
      1 C1           1.3080     1.0620    -0.8430 ca         1 3PZ       0.374000
      2 N1          -0.9070    -0.9570    -0.8700 n3         1 3PZ      -0.760500
      3 O1          -1.7560    -1.9030     1.2770 o          1 3PZ      -0.538500
      4 S1          -0.6440    -2.0310     0.3510 sy         1 3PZ       1.199600
      5 C2           1.2880    -0.0840    -1.6800 ca         1 3PZ      -0.192300
      6 N2           0.1560     1.6110    -0.3400 nh         1 3PZ      -0.821400
      7 O2          -0.3520    -3.3180    -0.2630 o          1 3PZ      -0.538500
      8 C3           2.4710    -0.5570    -2.2100 ca         1 3PZ      -0.025000
      9 N3          -2.8770     3.2140     2.5400 nc         1 3PZ      -0.664000
     10 C4           3.7000     0.0340    -1.9200 ca         1 3PZ      -0.079000
     11 N4          -1.7610     4.1600     0.8910 na         1 3PZ      -0.166500
     12 C5           3.7330     1.1190    -1.0480 ca         1 3PZ      -0.025000
     13 N5           5.8750    -0.9200    -2.9140 n1         1 3PZ      -0.464000
     14 C6           2.5620     1.6170    -0.5240 ca         1 3PZ      -0.200000
     15 C7           0.0400    -0.9010    -1.9650 c3         1 3PZ       0.266100
     16 C8          -1.8140     0.1750    -0.7280 c3         1 3PZ       0.231500
     17 C9          -1.0760     1.4600    -1.0870 c3         1 3PZ       0.205800
     18 C10          0.2690     2.6830     0.6480 c3         1 3PZ       0.302100
     19 C11         -1.0250     3.0660     1.2750 cd         1 3PZ      -0.247300
     20 C12         -1.7400     2.5040     2.2990 cc         1 3PZ       0.266900
     21 C13         -2.8540     4.1990     1.6790 cd         1 3PZ       0.402400
     22 C15         -3.0600    -0.0060    -1.6030 c3         1 3PZ      -0.029100
     23 C16         -5.2680    -3.4840    -0.3830 ca         1 3PZ      -0.103000
     24 C17         -5.5380    -2.2470     0.1880 ca         1 3PZ      -0.102500
     25 C18         -4.8370    -1.1230    -0.2240 ca         1 3PZ      -0.097000
     26 C19         -3.8560    -1.2140    -1.2080 ca         1 3PZ      -0.089300
     27 C20         -3.5950    -2.4580    -1.7750 ca         1 3PZ      -0.097000
     28 C21         -4.2950    -3.5860    -1.3680 ca         1 3PZ      -0.102500
     29 C22          3.1460    -0.4370     2.2570 ca         1 3PZ       0.194100
     30 C23          1.8930    -0.0060     2.7090 ca         1 3PZ      -0.201500
     31 C24          0.7420    -0.5290     2.1630 ca         1 3PZ       0.030500
     32 C25          0.8240    -1.4970     1.1670 ca         1 3PZ      -0.338500
     33 C26          2.0610    -1.9550     0.7410 ca         1 3PZ       0.030500
     34 C27          3.2220    -1.4330     1.2840 ca         1 3PZ      -0.201500
     35 C28          5.5030    -0.2200     2.3720 c3         1 3PZ       0.144900
     36 C29          4.9000    -0.4920    -2.4700 cg         1 3PZ       0.332000
     37 H3           2.4440    -1.4370    -2.8420 ha         1 3PZ       0.124000
     38 H5           4.6750     1.5850    -0.7890 ha         1 3PZ       0.121000
     39 H6           2.6380     2.4700     0.1340 ha         1 3PZ       0.119000
     40 H7           0.3390    -1.9130    -2.2350 h1         1 3PZ       0.069200
     41 H7A         -0.4910    -0.5250    -2.8420 h1         1 3PZ       0.069200
     42 H8          -2.1260     0.2480     0.3150 h1         1 3PZ       0.091700
     43 H9          -1.7450     2.2940    -0.8860 h1         1 3PZ       0.053700
     44 H9A         -0.8750     1.5130    -2.1610 h1         1 3PZ       0.053700
     45 H10          0.9400     2.3470     1.4400 h1         1 3PZ       0.054200
     46 H10A         0.7360     3.5730     0.2080 h1         1 3PZ       0.054200
     47 H12         -1.4830     1.6290     2.8770 h4         1 3PZ       0.045100
     48 H13         -3.5980     4.9750     1.5800 h5         1 3PZ       0.057100
     49 H14         -1.3090     4.6390    -1.1020 h1         1 3PZ       0.055700
     50 H14A        -2.2120     5.8600    -0.2040 h1         1 3PZ       0.055700
     51 H14B        -0.4890     5.6330     0.1120 h1         1 3PZ       0.055700
     52 H15         -3.6730     0.8950    -1.5140 hc         1 3PZ       0.047700
     53 H15A        -2.7570    -0.0730    -2.6520 hc         1 3PZ       0.047700
     54 H16         -5.8170    -4.3620    -0.0660 ha         1 3PZ       0.111000
     55 H17         -6.2990    -2.1580     0.9530 ha         1 3PZ       0.113000
     56 H18         -5.0530    -0.1620     0.2280 ha         1 3PZ       0.109500
     57 H20         -2.8450    -2.5460    -2.5520 ha         1 3PZ       0.109500
     58 H21         -4.0820    -4.5450    -1.8220 ha         1 3PZ       0.113000
     59 H23          1.8360     0.7480     3.4840 ha         1 3PZ       0.126500
     60 H24         -0.2200    -0.1830     2.5150 ha         1 3PZ       0.132500
     61 H26          2.1380    -2.7210    -0.0180 ha         1 3PZ       0.132500
     62 H27          4.1710    -1.8010     0.9220 ha         1 3PZ       0.126500
     63 H28          5.6330    -0.0380     1.3020 h1         1 3PZ       0.046367
     64 H28A         6.2070     0.4000     2.9210 h1         1 3PZ       0.046367
     65 H28B         5.7170    -1.2700     2.5820 h1         1 3PZ       0.046367
     66 C14         -1.4170     5.1220    -0.1330 c3         1 3PZ       0.053900
     67 O3           4.2100     0.1530     2.8130 os         1 3PZ      -0.338100
@<TRIPOS>BOND
     1     1     5 ar  
     2     1     6 1   
     3     1    14 ar  
     4     2     4 1   
     5     2    15 1   
     6     2    16 1   
     7     3     4 2   
     8     4     7 2   
     9     4    32 1   
    10     5     8 ar  
    11     5    15 1   
    12     6    17 1   
    13     6    18 1   
    14     8    10 ar  
    15     8    37 1   
    16     9    20 1   
    17     9    21 2   
    18    10    12 ar  
    19    10    36 1   
    20    11    19 1   
    21    11    21 1   
    22    11    66 1   
    23    12    14 ar  
    24    12    38 1   
    25    13    36 3   
    26    14    39 1   
    27    15    40 1   
    28    15    41 1   
    29    16    17 1   
    30    16    22 1   
    31    16    42 1   
    32    17    43 1   
    33    17    44 1   
    34    18    19 1   
    35    18    45 1   
    36    18    46 1   
    37    19    20 2   
    38    20    47 1   
    39    21    48 1   
    40    22    26 1   
    41    22    52 1   
    42    22    53 1   
    43    23    24 ar  
    44    23    28 ar  
    45    23    54 1   
    46    24    25 ar  
    47    24    55 1   
    48    25    26 ar  
    49    25    56 1   
    50    26    27 ar  
    51    27    28 ar  
    52    27    57 1   
    53    28    58 1   
    54    29    30 ar  
    55    29    34 ar  
    56    29    67 1   
    57    30    31 ar  
    58    30    59 1   
    59    31    32 ar  
    60    31    60 1   
    61    32    33 ar  
    62    33    34 ar  
    63    33    61 1   
    64    34    62 1   
    65    35    63 1   
    66    35    64 1   
    67    35    65 1   
    68    35    67 1   
    69    49    66 1   
    70    50    66 1   
    71    51    66 1   
@<TRIPOS>SUBSTRUCTURE
     1 3PZ         1 TEMP              0 ****  ****    0 ROOT
