@<TRIPOS>MOLECULE
3Q0
   35    37     1     0     0
SMALL
bcc


@<TRIPOS>ATOM
      1 C13         -2.2900    -1.6480    -0.3570 ca         1 3Q0      -0.068000
      2 C12         -0.9760    -1.2760    -0.3820 ca         1 3Q0      -0.148000
      3 C20         -1.5010     1.0140     0.2590 ca         1 3Q0      -0.058000
      4 C5           1.8580    -0.5310     0.0210 ca         1 3Q0      -0.486600
      5 C14         -3.2530    -0.6830    -0.0070 ca         1 3Q0      -0.196000
      6 C11         -0.5700     0.0590    -0.0680 cp         1 3Q0      -0.140500
      7 C19         -2.8660     0.6510     0.3010 ca         1 3Q0      -0.044000
      8 C6           0.8660     0.4270    -0.0820 cp         1 3Q0       0.574800
      9 C4           3.1880    -0.0680     0.0040 ca         1 3Q0       0.749200
     10 C15         -4.6470    -0.6770     0.1330 cc         1 3Q0       0.129900
     11 C8           2.4350     2.0650    -0.1720 ca         1 3Q0       0.936900
     12 C1           5.5190    -2.9640     0.2440 c3         1 3Q0      -0.111100
     13 C2           4.1370    -2.3470     0.1340 c3         1 3Q0       0.236800
     14 N7           1.1450     1.7290    -0.1770 nb         1 3Q0      -0.817000
     15 N10          3.4700     1.2330    -0.0970 nb         1 3Q0      -0.862000
     16 N17         -4.9550     0.5740     0.4910 na         1 3Q0       0.013800
     17 N18         -3.9100     1.4160     0.6060 nc         1 3Q0      -0.285400
     18 N16         -5.5560    -1.6900     0.0300 nv         1 3Q0      -0.804600
     19 N9           2.7190     3.3890    -0.2190 nv         1 3Q0      -0.944500
     20 N3           4.2330    -0.9040     0.0920 nu         1 3Q0      -0.885900
     21 H13         -2.5760    -2.6620    -0.6090 ha         1 3Q0       0.124000
     22 H12         -0.2320    -2.0070    -0.6690 ha         1 3Q0       0.128000
     23 H20         -1.1930     2.0250     0.4930 ha         1 3Q0       0.166000
     24 H5           1.6340    -1.5800     0.1280 ha         1 3Q0       0.148000
     25 H1           6.0260    -2.6350     1.1510 hc         1 3Q0       0.045367
     26 H1A          5.4390    -4.0490     0.2770 hc         1 3Q0       0.045367
     27 H1B          6.1400    -2.7000    -0.6130 hc         1 3Q0       0.045367
     28 H2           3.6320    -2.7220    -0.7620 h1         1 3Q0       0.041700
     29 H2A          3.5330    -2.6570     0.9920 h1         1 3Q0       0.041700
     30 HN16        -5.2710    -2.4490    -0.5680 hn         1 3Q0       0.402300
     31 HN1A        -6.5080    -1.4150    -0.1550 hn         1 3Q0       0.402300
     32 HN9          1.9880     4.0100    -0.5210 hn         1 3Q0       0.429300
     33 HN9A         3.6560     3.6610    -0.4600 hn         1 3Q0       0.429300
     34 HN3          5.1470    -0.4860     0.0190 hn         1 3Q0       0.446800
     35 HN17        -5.8840     0.9220     0.6750 hn         1 3Q0       0.314700
@<TRIPOS>BOND
     1     1     2 ar  
     2     1     5 ar  
     3     1    21 1   
     4     2     6 ar  
     5     2    22 1   
     6     3     6 ar  
     7     3     7 ar  
     8     3    23 1   
     9     4     8 ar  
    10     4     9 ar  
    11     4    24 1   
    12     5     7 ar  
    13     5    10 2   
    14     6     8 1   
    15     7    17 2   
    16     8    14 ar  
    17     9    15 ar  
    18     9    20 1   
    19    10    16 1   
    20    10    18 1   
    21    11    14 ar  
    22    11    15 ar  
    23    11    19 1   
    24    12    13 1   
    25    12    25 1   
    26    12    26 1   
    27    12    27 1   
    28    13    20 1   
    29    13    28 1   
    30    13    29 1   
    31    16    17 1   
    32    16    35 1   
    33    18    30 1   
    34    18    31 1   
    35    19    32 1   
    36    19    33 1   
    37    20    34 1   
@<TRIPOS>SUBSTRUCTURE
     1 3Q0         1 TEMP              0 ****  ****    0 ROOT
