@<TRIPOS>MOLECULE
3Q0
   35    37     1     0     0
SMALL
No Charge or Current Charge


@<TRIPOS>ATOM
      1 C13         -2.4230    -1.5980    -0.3760 ca         1 3Q0      -0.050000
      2 C12         -1.0560    -1.2580    -0.3860 ca         1 3Q0      -0.130000
      3 C20         -1.6010     1.0300     0.2960 ca         1 3Q0      -0.040000
      4 C5           1.8880    -0.5430     0.0160 ca         1 3Q0      -0.338000
      5 C14         -3.3370    -0.6000    -0.0230 ca         1 3Q0      -0.196000
      6 C11         -0.6100     0.0590    -0.0490 cp         1 3Q0      -0.140500
      7 C19         -2.9610     0.6810     0.3050 ca         1 3Q0      -0.044000
      8 C6           0.8520     0.4190    -0.0620 cp         1 3Q0       0.246500
      9 C4           3.2110    -0.0900    -0.0040 ca         1 3Q0       0.420900
     10 C15         -4.7450    -0.6010     0.0850 cc         1 3Q0       0.129900
     11 C8           2.4740     2.0390    -0.1510 ca         1 3Q0       0.410900
     12 C1           5.7030    -2.9640     0.2160 c3         1 3Q0      -0.111100
     13 C2           4.2700    -2.4110     0.1630 c3         1 3Q0       0.236800
     14 N7           1.1730     1.7260    -0.1400 nb         1 3Q0      -0.291000
     15 N10          3.5160     1.2080    -0.0900 nb         1 3Q0      -0.336000
     16 N17         -5.1430     0.6650     0.4710 na         1 3Q0      -0.036500
     17 N18         -4.0400     1.5200     0.6250 nc         1 3Q0      -0.285400
     18 N16         -5.5980    -1.6450    -0.1410 nv         1 3Q0      -0.915000
     19 N9           2.7720     3.3550    -0.2370 nv         1 3Q0      -1.054900
     20 N3           4.2930    -0.9460     0.0670 nu         1 3Q0      -0.941100
     21 H13         -2.7520    -2.6010    -0.6360 ha         1 3Q0       0.106000
     22 H12         -0.3410    -2.0230    -0.6750 ha         1 3Q0       0.110000
     23 H20         -1.3170     2.0450     0.5640 ha         1 3Q0       0.148000
     24 H5           1.6670    -1.6000     0.1030 ha         1 3Q0       0.130000
     25 H1           6.2390    -2.5750     1.0890 hc         1 3Q0       0.045367
     26 H1A          5.6810    -4.0580     0.2870 hc         1 3Q0       0.045367
     27 H1B          6.2600    -2.6920    -0.6890 hc         1 3Q0       0.045367
     28 H2           3.7500    -2.8380    -0.7060 h1         1 3Q0       0.041700
     29 H2A          3.7300    -2.7220     1.0680 h1         1 3Q0       0.041700
     30 HN16        -5.2410    -2.5410    -0.4680 hn         1 3Q0       0.457500
     31 HN1A        -6.6090    -1.5300    -0.0860 hn         1 3Q0       0.457500
     32 HN9          2.0340     3.9980    -0.5130 hn         1 3Q0       0.484500
     33 HN9A         3.7250     3.6200    -0.4720 hn         1 3Q0       0.484500
     34 HN3          5.2040    -0.4880     0.0450 hn         1 3Q0       0.502000
     35 HN17        -6.0910     0.9840     0.6360 hn         1 3Q0       0.365000
@<TRIPOS>BOND
     1     1     2 ar  
     2     1     5 ar  
     3     1    21 1   
     4     2     6 ar  
     5     2    22 1   
     6     3     6 ar  
     7     3     7 ar  
     8     3    23 1   
     9     4     8 ar  
    10     4     9 ar  
    11     4    24 1   
    12     5     7 ar  
    13     5    10 2   
    14     6     8 1   
    15     7    17 2   
    16     8    14 ar  
    17     9    15 ar  
    18     9    20 1   
    19    10    16 1   
    20    10    18 1   
    21    11    14 ar  
    22    11    15 ar  
    23    11    19 1   
    24    12    13 1   
    25    12    25 1   
    26    12    26 1   
    27    12    27 1   
    28    13    20 1   
    29    13    28 1   
    30    13    29 1   
    31    16    17 1   
    32    16    35 1   
    33    18    30 1   
    34    18    31 1   
    35    19    32 1   
    36    19    33 1   
    37    20    34 1   
@<TRIPOS>SUBSTRUCTURE
     1 3Q0         1 TEMP              0 ****  ****    0 ROOT
