@<TRIPOS>MOLECULE
3Q1
   40    43     1     0     0
SMALL
bcc


@<TRIPOS>ATOM
      1 C9          -2.9670    -1.7740    -0.2300 ca         1 3Q1      -0.068000
      2 C8          -1.6900    -1.2880    -0.2420 ca         1 3Q1      -0.149000
      3 C6          -2.4380     0.9890     0.1710 ca         1 3Q1      -0.055000
      4 C12          1.0730    -0.2380    -0.1280 ca         1 3Q1      -0.480600
      5 C10         -4.0250    -0.8720    -0.0110 ca         1 3Q1      -0.195000
      6 C7          -1.4110     0.1020    -0.0390 cp         1 3Q1      -0.142500
      7 C5          -3.7680     0.5110     0.1920 ca         1 3Q1      -0.045000
      8 C11         -0.0150     0.6090    -0.0430 cp         1 3Q1       0.576800
      9 C13          2.3560     0.3540    -0.1060 ca         1 3Q1       0.755200
     10 C2          -5.4200    -0.9780     0.0750 cc         1 3Q1       0.128900
     11 C15          1.3710     2.3980     0.0540 ca         1 3Q1       0.939900
     12 C19          3.5170    -1.8000    -0.4280 c6         1 3Q1       0.185300
     13 C23          4.7870     0.2650    -0.3490 c6         1 3Q1       0.185300
     14 C20          4.6630    -2.4640     0.3160 c6         1 3Q1       0.116900
     15 C22          5.8690    -0.4900     0.3970 c6         1 3Q1       0.116900
     16 N17          0.1260     1.9340     0.0500 nb         1 3Q1      -0.815000
     17 N14          2.4860     1.6750    -0.0250 nb         1 3Q1      -0.859000
     18 N3          -5.8490     0.2660     0.3070 na         1 3Q1       0.014800
     19 N4          -4.8860     1.2040     0.3870 nc         1 3Q1      -0.285400
     20 N18          3.4980    -0.3770    -0.1470 nh         1 3Q1      -0.782300
     21 N1          -6.2330    -2.0740     0.0290 nv         1 3Q1      -0.802600
     22 N16          1.5240     3.7430     0.1080 nv         1 3Q1      -0.947500
     23 O21          5.9000    -1.8530     0.0370 os         1 3Q1      -0.397600
     24 H9          -3.1490    -2.8300    -0.3850 ha         1 3Q1       0.125000
     25 H8          -0.8810    -1.9840    -0.4110 ha         1 3Q1       0.126000
     26 H6          -2.2330     2.0400     0.3230 ha         1 3Q1       0.168000
     27 H19          3.6140    -1.9720    -1.5060 h1         1 3Q1       0.060200
     28 H19A         2.5950    -2.2750    -0.1000 h1         1 3Q1       0.060200
     29 H23          4.7460     1.2900     0.0090 h1         1 3Q1       0.060200
     30 H23A         5.0240     0.2970    -1.4200 h1         1 3Q1       0.060200
     31 H20          4.4550    -2.4360     1.3950 h1         1 3Q1       0.053700
     32 H20A         4.7340    -3.5090     0.0130 h1         1 3Q1       0.053700
     33 H22          6.8440    -0.0640     0.1550 h1         1 3Q1       0.053700
     34 H22A         5.7100    -0.3830     1.4790 h1         1 3Q1       0.053700
     35 HN1         -5.8550    -2.8500    -0.4920 hn         1 3Q1       0.402300
     36 HN1A        -7.1960    -1.9030    -0.2170 hn         1 3Q1       0.402300
     37 HN16         0.7330     4.2920     0.3960 hn         1 3Q1       0.430800
     38 HN1B         2.4300     4.1060     0.3500 hn         1 3Q1       0.430800
     39 HN3         -6.8120     0.5450     0.4280 hn         1 3Q1       0.315700
     40 H12          0.9470    -1.3050    -0.1980 ha         1 3Q1       0.147000
@<TRIPOS>BOND
     1     1     2 ar  
     2     1     5 ar  
     3     1    24 1   
     4     2     6 ar  
     5     2    25 1   
     6     3     6 ar  
     7     3     7 ar  
     8     3    26 1   
     9     4     8 ar  
    10     4     9 ar  
    11     4    40 1   
    12     5     7 ar  
    13     5    10 2   
    14     6     8 1   
    15     7    19 2   
    16     8    16 ar  
    17     9    17 ar  
    18     9    20 1   
    19    10    18 1   
    20    10    21 1   
    21    11    16 ar  
    22    11    17 ar  
    23    11    22 1   
    24    12    14 1   
    25    12    20 1   
    26    12    27 1   
    27    12    28 1   
    28    13    15 1   
    29    13    20 1   
    30    13    29 1   
    31    13    30 1   
    32    14    23 1   
    33    14    31 1   
    34    14    32 1   
    35    15    23 1   
    36    15    33 1   
    37    15    34 1   
    38    18    19 1   
    39    18    39 1   
    40    21    35 1   
    41    21    36 1   
    42    22    37 1   
    43    22    38 1   
@<TRIPOS>SUBSTRUCTURE
     1 3Q1         1 TEMP              0 ****  ****    0 ROOT
