@<TRIPOS>MOLECULE
3Q1
   40    43     1     0     0
SMALL
No Charge or Current Charge


@<TRIPOS>ATOM
      1 C9          -3.0880    -1.6270    -0.6310 ca         1 3Q1      -0.050000
      2 C8          -1.7660    -1.1430    -0.5740 ca         1 3Q1      -0.131000
      3 C6          -2.5590     0.9630     0.3930 ca         1 3Q1      -0.037000
      4 C12          1.0790    -0.1770    -0.0080 ca         1 3Q1      -0.332000
      5 C10         -4.1070    -0.7880    -0.1660 ca         1 3Q1      -0.195000
      6 C7          -1.4670     0.1580    -0.0590 cp         1 3Q1      -0.142500
      7 C5          -3.8720     0.4710     0.3330 ca         1 3Q1      -0.045000
      8 C11         -0.0530     0.6720    -0.0010 cp         1 3Q1       0.248500
      9 C13          2.3580     0.4040     0.0460 ca         1 3Q1       0.426900
     10 C2          -5.5070    -0.9550    -0.0820 cc         1 3Q1       0.128900
     11 C15          1.3780     2.4540     0.1120 ca         1 3Q1       0.413900
     12 C19          3.5060    -1.8660     0.1810 c6         1 3Q1       0.185300
     13 C23          4.8050     0.1570    -0.5980 c6         1 3Q1       0.185300
     14 C20          4.8620    -2.4770     0.6450 c6         1 3Q1       0.140100
     15 C22          6.0940    -0.5560    -0.0910 c6         1 3Q1       0.140100
     16 N17          0.1210     2.0050     0.0710 nb         1 3Q1      -0.289000
     17 N14          2.5030     1.7390     0.1030 nb         1 3Q1      -0.333000
     18 N3          -6.0410     0.2000     0.4580 na         1 3Q1      -0.035500
     19 N4          -5.0370     1.1410     0.7410 nc         1 3Q1      -0.285400
     20 N18          3.5480    -0.3680     0.0480 nh         1 3Q1      -0.782300
     21 N1          -6.2400    -2.0460    -0.4560 nv         1 3Q1      -0.913000
     22 N16          1.5320     3.7950     0.1790 nv         1 3Q1      -1.057900
     23 O21          5.9550    -1.9920    -0.1660 os         1 3Q1      -0.444000
     24 H9          -3.3060    -2.6160    -1.0270 ha         1 3Q1       0.107000
     25 H8          -0.9720    -1.7820    -0.9500 ha         1 3Q1       0.108000
     26 H6          -2.3880     1.9580     0.7950 ha         1 3Q1       0.150000
     27 H19          3.2260    -2.3200    -0.7820 h1         1 3Q1       0.060200
     28 H19A         2.7460    -2.1650     0.9170 h1         1 3Q1       0.060200
     29 H23          4.9330     1.2330    -0.4080 h1         1 3Q1       0.060200
     30 H23A         4.7410     0.0300    -1.6890 h1         1 3Q1       0.060200
     31 H20          5.0480    -2.2130     1.6960 h1         1 3Q1       0.053700
     32 H20A         4.8190    -3.5730     0.5750 h1         1 3Q1       0.053700
     33 H22          6.9550    -0.2450    -0.7000 h1         1 3Q1       0.053700
     34 H22A         6.2940    -0.2660     0.9510 h1         1 3Q1       0.053700
     35 HN1         -5.7780    -2.8830    -0.8070 hn         1 3Q1       0.457500
     36 HN1A        -7.2470    -2.0890    -0.3070 hn         1 3Q1       0.457500
     37 HN16         0.7210     4.3600     0.4190 hn         1 3Q1       0.486000
     38 HN1B         2.4420     4.1640     0.4400 hn         1 3Q1       0.486000
     39 HN3         -7.0190     0.3910     0.6450 hn         1 3Q1       0.366000
     40 H12          0.9560    -1.2510    -0.0510 ha         1 3Q1       0.129000
@<TRIPOS>BOND
     1     1     2 ar  
     2     1     5 ar  
     3     1    24 1   
     4     2     6 ar  
     5     2    25 1   
     6     3     6 ar  
     7     3     7 ar  
     8     3    26 1   
     9     4     8 ar  
    10     4     9 ar  
    11     4    40 1   
    12     5     7 ar  
    13     5    10 2   
    14     6     8 1   
    15     7    19 2   
    16     8    16 ar  
    17     9    17 ar  
    18     9    20 1   
    19    10    18 1   
    20    10    21 1   
    21    11    16 ar  
    22    11    17 ar  
    23    11    22 1   
    24    12    14 1   
    25    12    20 1   
    26    12    27 1   
    27    12    28 1   
    28    13    15 1   
    29    13    20 1   
    30    13    29 1   
    31    13    30 1   
    32    14    23 1   
    33    14    31 1   
    34    14    32 1   
    35    15    23 1   
    36    15    33 1   
    37    15    34 1   
    38    18    19 1   
    39    18    39 1   
    40    21    35 1   
    41    21    36 1   
    42    22    37 1   
    43    22    38 1   
@<TRIPOS>SUBSTRUCTURE
     1 3Q1         1 TEMP              0 ****  ****    0 ROOT
