@<TRIPOS>MOLECULE
3Q2
   43    46     1     0     0
SMALL
No Charge or Current Charge


@<TRIPOS>ATOM
      1 C1          -3.3010    -1.7060     0.0740 ca         1 3Q2      -0.049000
      2 C2          -1.9810    -1.2440     0.2470 ca         1 3Q2      -0.132000
      3 C3          -2.7320     1.0680    -0.0520 ca         1 3Q2      -0.040000
      4 C4           0.8840    -0.1840     0.1730 ca         1 3Q2      -0.334000
      5 C5          -4.2970    -0.7520    -0.1600 ca         1 3Q2      -0.198000
      6 C6          -1.6630     0.1490     0.1850 cp         1 3Q2      -0.141500
      7 C7          -4.0440     0.5970    -0.2230 ca         1 3Q2      -0.043000
      8 C8          -0.2510     0.6380     0.3710 cp         1 3Q2       0.244500
      9 C9           2.1600     0.3710     0.3670 ca         1 3Q2       0.422900
     10 C10         -5.6890    -0.8680    -0.3710 cc         1 3Q2       0.130900
     11 C11          1.1760     2.3550     0.8810 ca         1 3Q2       0.413900
     12 C12          3.3130    -1.8780     0.0660 c6         1 3Q2       0.184800
     13 C13          4.6700    -2.5540     0.4240 c6         1 3Q2       0.142600
     14 C14          5.8890    -0.5250     0.0430 c6         1 3Q2       0.142600
     15 C15          4.5990     0.2670    -0.3480 c6         1 3Q2       0.200500
     16 C16          4.4740     0.4370    -1.8870 c3         1 3Q2      -0.109100
     17 N17         -0.0800     1.9260     0.7260 nb         1 3Q2      -0.283000
     18 N18          2.3020     1.6590     0.7270 nb         1 3Q2      -0.331000
     19 N19         -6.2000     0.4040    -0.5490 na         1 3Q2      -0.035500
     20 N20         -5.1880     1.3740    -0.4640 nc         1 3Q2      -0.285400
     21 N21          3.3490    -0.3800     0.1910 nh         1 3Q2      -0.776300
     22 N22         -6.4340    -2.0140    -0.4000 nv         1 3Q2      -0.915000
     23 N23          1.3260     3.6480     1.2430 nv         1 3Q2      -1.061900
     24 O24          5.7640    -1.9280    -0.2810 os         1 3Q2      -0.440000
     25 H1          -3.5340    -2.7670     0.1250 ha         1 3Q2       0.106000
     26 H2          -1.2050    -1.9770     0.4450 ha         1 3Q2       0.110000
     27 H3          -2.5450     2.1370    -0.1100 ha         1 3Q2       0.147000
     28 H4           0.7680    -1.2100    -0.1490 ha         1 3Q2       0.130000
     29 H12          3.0370    -2.1610    -0.9600 h1         1 3Q2       0.051700
     30 H12A         2.5500    -2.2980     0.7380 h1         1 3Q2       0.051700
     31 H13          4.8490    -2.4770     1.5060 h1         1 3Q2       0.052200
     32 H13A         4.6350    -3.6210     0.1610 h1         1 3Q2       0.052200
     33 H14          6.7600    -0.1090    -0.4830 h1         1 3Q2       0.054700
     34 H14A         6.0710    -0.4220     1.1230 h1         1 3Q2       0.054700
     35 H15          4.7230     1.2740     0.0780 h1         1 3Q2       0.091700
     36 H16          4.3790    -0.5310    -2.3940 hc         1 3Q2       0.044033
     37 H16A         3.5960     1.0390    -2.1480 hc         1 3Q2       0.044033
     38 H16B         5.3540     0.9430    -2.2980 hc         1 3Q2       0.044033
     39 HN22        -5.9850    -2.9240    -0.3110 hn         1 3Q2       0.458000
     40 HN2A        -7.4290    -1.9960    -0.6180 hn         1 3Q2       0.458000
     41 HN23         2.2350     3.9440     1.5900 hn         1 3Q2       0.488500
     42 HN2B         0.5150     4.1500     1.5960 hn         1 3Q2       0.488500
     43 HN19        -7.1660     0.6550    -0.7210 hn         1 3Q2       0.366000
@<TRIPOS>BOND
     1     1     2 ar  
     2     1     5 ar  
     3     1    25 1   
     4     2     6 ar  
     5     2    26 1   
     6     3     6 ar  
     7     3     7 ar  
     8     3    27 1   
     9     4     8 ar  
    10     4     9 ar  
    11     4    28 1   
    12     5     7 ar  
    13     5    10 2   
    14     6     8 1   
    15     7    20 2   
    16     8    17 ar  
    17     9    18 ar  
    18     9    21 1   
    19    10    19 1   
    20    10    22 1   
    21    11    17 ar  
    22    11    18 ar  
    23    11    23 1   
    24    12    13 1   
    25    12    21 1   
    26    12    29 1   
    27    12    30 1   
    28    13    24 1   
    29    13    31 1   
    30    13    32 1   
    31    14    15 1   
    32    14    24 1   
    33    14    33 1   
    34    14    34 1   
    35    15    16 1   
    36    15    21 1   
    37    15    35 1   
    38    16    36 1   
    39    16    37 1   
    40    16    38 1   
    41    19    20 1   
    42    19    43 1   
    43    22    39 1   
    44    22    40 1   
    45    23    41 1   
    46    23    42 1   
@<TRIPOS>SUBSTRUCTURE
     1 3Q2         1 TEMP              0 ****  ****    0 ROOT
