@<TRIPOS>MOLECULE
3Q2
   43    46     1     0     0
SMALL
abcg2


@<TRIPOS>ATOM
      1 C1          -3.2070    -1.7440     0.2940 ca         1 3Q2      -0.049000
      2 C2          -1.9290    -1.2670     0.3790 ca         1 3Q2      -0.132000
      3 C3          -2.6380     1.0180    -0.0820 ca         1 3Q2      -0.040000
      4 C4           0.8360    -0.2380     0.0770 ca         1 3Q2      -0.334000
      5 C5          -4.2420    -0.8360     0.0030 ca         1 3Q2      -0.198000
      6 C6          -1.6350     0.1200     0.1880 cp         1 3Q2      -0.141500
      7 C7          -3.9660     0.5460    -0.1890 ca         1 3Q2      -0.043000
      8 C8          -0.2380     0.6090     0.2840 cp         1 3Q2       0.244500
      9 C9           2.1260     0.3220     0.1930 ca         1 3Q2       0.422900
     10 C10         -5.6300    -0.9350    -0.1660 cc         1 3Q2       0.130900
     11 C11          1.1720     2.3480     0.6070 ca         1 3Q2       0.413900
     12 C12          3.2100    -1.8070    -0.3470 c6         1 3Q2       0.184800
     13 C13          4.4330    -2.5560     0.1510 c6         1 3Q2       0.142600
     14 C14          5.6630    -0.6250     0.3740 c6         1 3Q2       0.142600
     15 C15          4.5410     0.2620    -0.1430 c6         1 3Q2       0.200500
     16 C16          4.7320     0.6640    -1.6030 c3         1 3Q2      -0.109100
     17 N17         -0.0830     1.9060     0.5530 nb         1 3Q2      -0.283000
     18 N18          2.2740     1.6200     0.4490 nb         1 3Q2      -0.331000
     19 N19         -6.0380     0.3100    -0.4280 na         1 3Q2      -0.035500
     20 N20         -5.0660     1.2440    -0.4540 nc         1 3Q2      -0.285400
     21 N21          3.2590    -0.4150     0.0640 nh         1 3Q2      -0.776300
     22 N22         -6.4690    -2.0020    -0.0290 nv         1 3Q2      -0.915000
     23 N23          1.3440     3.6740     0.8160 nv         1 3Q2      -1.061900
     24 O24          5.6320    -1.9110    -0.2010 os         1 3Q2      -0.440000
     25 H1          -3.4090    -2.7960     0.4570 ha         1 3Q2       0.106000
     26 H2          -1.1310    -1.9530     0.6250 ha         1 3Q2       0.110000
     27 H3          -2.4160     2.0680    -0.2190 ha         1 3Q2       0.147000
     28 H4           0.6810    -1.2680    -0.1950 ha         1 3Q2       0.130000
     29 H12          3.1220    -1.8970    -1.4360 h1         1 3Q2       0.051700
     30 H12A         2.3400    -2.2950     0.0890 h1         1 3Q2       0.051700
     31 H13          4.3670    -2.6680     1.2430 h1         1 3Q2       0.052200
     32 H13A         4.4450    -3.5550    -0.2870 h1         1 3Q2       0.052200
     33 H14          6.6250    -0.1750     0.1270 h1         1 3Q2       0.054700
     34 H14A         5.5930    -0.6970     1.4690 h1         1 3Q2       0.054700
     35 H15          4.5410     1.1610     0.4710 h1         1 3Q2       0.091700
     36 H16          4.7390    -0.2000    -2.2690 hc         1 3Q2       0.044033
     37 H16A         3.9360     1.3350    -1.9240 hc         1 3Q2       0.044033
     38 H16B         5.6800     1.1900    -1.7290 hc         1 3Q2       0.044033
     39 HN22        -6.0250    -2.9000    -0.1460 hn         1 3Q2       0.458000
     40 HN2A        -7.3380    -1.9540    -0.5390 hn         1 3Q2       0.458000
     41 HN23         2.2570     4.0010     1.0800 hn         1 3Q2       0.488500
     42 HN2B         0.5600     4.2080     1.1470 hn         1 3Q2       0.488500
     43 HN19        -6.9910     0.5950    -0.6000 hn         1 3Q2       0.366000
@<TRIPOS>BOND
     1     1     2 ar  
     2     1     5 ar  
     3     1    25 1   
     4     2     6 ar  
     5     2    26 1   
     6     3     6 ar  
     7     3     7 ar  
     8     3    27 1   
     9     4     8 ar  
    10     4     9 ar  
    11     4    28 1   
    12     5     7 ar  
    13     5    10 2   
    14     6     8 1   
    15     7    20 2   
    16     8    17 ar  
    17     9    18 ar  
    18     9    21 1   
    19    10    19 1   
    20    10    22 1   
    21    11    17 ar  
    22    11    18 ar  
    23    11    23 1   
    24    12    13 1   
    25    12    21 1   
    26    12    29 1   
    27    12    30 1   
    28    13    24 1   
    29    13    31 1   
    30    13    32 1   
    31    14    15 1   
    32    14    24 1   
    33    14    33 1   
    34    14    34 1   
    35    15    16 1   
    36    15    21 1   
    37    15    35 1   
    38    16    36 1   
    39    16    37 1   
    40    16    38 1   
    41    19    20 1   
    42    19    43 1   
    43    22    39 1   
    44    22    40 1   
    45    23    41 1   
    46    23    42 1   
@<TRIPOS>SUBSTRUCTURE
     1 3Q2         1 TEMP              0 ****  ****    0 ROOT
