@<TRIPOS>MOLECULE
3Q3
   54    58     1     0     0
SMALL
No Charge or Current Charge


@<TRIPOS>ATOM
      1 C1           8.5050     2.2060     0.8900 ca         1 3Q3      -0.136000
      2 C2           8.6350     0.8090     0.8760 ca         1 3Q3      -0.083000
      3 C3           7.2620     2.7950     0.6100 ca         1 3Q3      -0.083000
      4 C4          -5.8560    -1.2710     0.1740 ca         1 3Q3      -0.046000
      5 C5          -4.4910    -1.1030    -0.1300 ca         1 3Q3      -0.133000
      6 C6           7.5240    -0.0020     0.5840 ca         1 3Q3      -0.150000
      7 C7           6.1510     1.9840     0.3190 ca         1 3Q3      -0.150000
      8 C8          -4.7610     1.3300    -0.0850 ca         1 3Q3      -0.039000
      9 C9          -1.4790    -0.6310    -0.3500 ca         1 3Q3      -0.339000
     10 C10         -6.6310    -0.1180     0.3400 ca         1 3Q3      -0.198000
     11 C11         -3.9090     0.1970    -0.2620 cp         1 3Q3      -0.141500
     12 C12         -6.1200     1.1520     0.2180 ca         1 3Q3      -0.043000
     13 C13          6.2670     0.5810     0.3070 ca         1 3Q3      -0.019000
     14 C14         -2.4490     0.3720    -0.5880 cp         1 3Q3       0.249500
     15 C15         -0.1410    -0.3680    -0.6850 ca         1 3Q3       0.432900
     16 C16         -7.9980     0.0690     0.6410 cc         1 3Q3       0.132900
     17 C17         -0.7680     1.6980    -1.3930 ca         1 3Q3       0.432900
     18 C18          4.8260    -1.5370     0.0140 c          1 3Q3       0.613100
     19 C19          0.5850    -2.7390    -0.1210 c6         1 3Q3       0.186800
     20 C20          2.2880    -0.8620    -0.1210 c6         1 3Q3       0.189800
     21 C21          1.7430    -3.7170    -0.4640 c6         1 3Q3       0.140600
     22 C22          3.3780    -1.9450    -0.4060 c6         1 3Q3       0.067300
     23 N23         -2.0650     1.5500    -1.1120 nb         1 3Q3      -0.287000
     24 N24          0.2140     0.8160    -1.2120 nb         1 3Q3      -0.346000
     25 N25         -8.2410     1.4290     0.6880 na         1 3Q3      -0.036500
     26 N26         -7.0730     2.1640     0.4240 nc         1 3Q3      -0.285400
     27 N27          0.8950    -1.3130    -0.4830 nh         1 3Q3      -0.790300
     28 N28         -8.9430    -0.8940     0.8560 nv         1 3Q3      -0.915000
     29 N29         -0.4010     2.8860    -1.9190 nv         1 3Q3      -1.084900
     30 N30          5.0970    -0.1700    -0.0010 ns         1 3Q3      -0.150000
     31 O31          5.6460    -2.3810     0.3650 o          1 3Q3      -0.544100
     32 O32          2.9870    -3.2520     0.0990 os         1 3Q3      -0.414000
     33 H1           9.3660     2.8320     1.1150 ha         1 3Q3       0.115000
     34 H2           9.6000     0.3520     1.0880 ha         1 3Q3       0.113500
     35 H3           7.1580     3.8780     0.6190 ha         1 3Q3       0.113500
     36 H5          -3.8870    -1.9940    -0.2780 ha         1 3Q3       0.110000
     37 H6           7.6670    -1.0780     0.5730 ha         1 3Q3       0.128000
     38 H7           5.1930     2.4540     0.1040 ha         1 3Q3       0.128000
     39 H8          -4.3700     2.3410    -0.1720 ha         1 3Q3       0.146000
     40 H9          -1.7650    -1.5690     0.1070 ha         1 3Q3       0.132000
     41 H19         -0.3060    -3.0870    -0.6650 h1         1 3Q3       0.059200
     42 H19A         0.3640    -2.8140     0.9530 h1         1 3Q3       0.059200
     43 H20          2.3230    -0.5940     0.9460 h1         1 3Q3       0.075200
     44 H20A         2.5530     0.0420    -0.6900 h1         1 3Q3       0.075200
     45 H21          1.5170    -4.7160    -0.0650 h1         1 3Q3       0.058200
     46 H21A         1.8490    -3.8040    -1.5550 h1         1 3Q3       0.058200
     47 H22          3.4450    -2.0310    -1.5000 h1         1 3Q3       0.052700
     48 HN28        -8.7070    -1.8800     0.7570 hn         1 3Q3       0.459000
     49 HN2A        -9.9220    -0.6550     1.0110 hn         1 3Q3       0.459000
     50 HN29         0.5890     3.1180    -1.9210 hn         1 3Q3       0.502000
     51 HN2B        -1.0510     3.6650    -1.8500 hn         1 3Q3       0.502000
     52 HN30         4.3200     0.4050    -0.2960 hn         1 3Q3       0.152000
     53 HN25        -9.1250     1.8860     0.8820 hn         1 3Q3       0.366000
     54 H4          -6.2910    -2.2630     0.2700 ha         1 3Q3       0.107000
@<TRIPOS>BOND
     1     1     2 ar  
     2     1     3 ar  
     3     1    33 1   
     4     2     6 ar  
     5     2    34 1   
     6     3     7 ar  
     7     3    35 1   
     8     4     5 ar  
     9     4    10 ar  
    10     4    54 1   
    11     5    11 ar  
    12     5    36 1   
    13     6    13 ar  
    14     6    37 1   
    15     7    13 ar  
    16     7    38 1   
    17     8    11 ar  
    18     8    12 ar  
    19     8    39 1   
    20     9    14 ar  
    21     9    15 ar  
    22     9    40 1   
    23    10    12 ar  
    24    10    16 2   
    25    11    14 1   
    26    12    26 2   
    27    13    30 1   
    28    14    23 ar  
    29    15    24 ar  
    30    15    27 1   
    31    16    25 1   
    32    16    28 1   
    33    17    23 ar  
    34    17    24 ar  
    35    17    29 1   
    36    18    22 1   
    37    18    30 1   
    38    18    31 2   
    39    19    21 1   
    40    19    27 1   
    41    19    41 1   
    42    19    42 1   
    43    20    22 1   
    44    20    27 1   
    45    20    43 1   
    46    20    44 1   
    47    21    32 1   
    48    21    45 1   
    49    21    46 1   
    50    22    32 1   
    51    22    47 1   
    52    25    26 1   
    53    25    53 1   
    54    28    48 1   
    55    28    49 1   
    56    29    50 1   
    57    29    51 1   
    58    30    52 1   
@<TRIPOS>SUBSTRUCTURE
     1 3Q3         1 TEMP              0 ****  ****    0 ROOT
