@<TRIPOS>MOLECULE
3Q3
   54    58     1     0     0
SMALL
abcg2


@<TRIPOS>ATOM
      1 C1           8.7020     1.8770    -0.0880 ca         1 3Q3      -0.136000
      2 C2           8.5070     0.7220     0.6540 ca         1 3Q3      -0.083000
      3 C3           7.6880     2.3140    -0.9300 ca         1 3Q3      -0.083000
      4 C4          -5.7120    -1.3680    -0.4960 ca         1 3Q3      -0.046000
      5 C5          -4.3750    -1.0870    -0.4750 ca         1 3Q3      -0.133000
      6 C6           7.3240    -0.0020     0.5690 ca         1 3Q3      -0.150000
      7 C7           6.5030     1.6060    -1.0250 ca         1 3Q3      -0.150000
      8 C8          -4.7600     1.2070     0.2510 ca         1 3Q3      -0.039000
      9 C9          -1.5220    -0.5590     0.1020 ca         1 3Q3      -0.339000
     10 C10         -6.6140    -0.3540    -0.1260 ca         1 3Q3      -0.198000
     11 C11         -3.8890     0.2040    -0.0940 cp         1 3Q3      -0.141500
     12 C12         -6.1470     0.9370     0.2480 ca         1 3Q3      -0.043000
     13 C13          6.3080     0.4410    -0.2780 ca         1 3Q3      -0.019000
     14 C14         -2.4310     0.4710    -0.0590 cp         1 3Q3       0.249500
     15 C15         -0.1580    -0.2060     0.1400 ca         1 3Q3       0.432900
     16 C16         -8.0090    -0.2600    -0.0140 cc         1 3Q3       0.132900
     17 C17         -0.7480     1.9820    -0.0930 ca         1 3Q3       0.432900
     18 C18          4.5960    -1.3120     0.1780 c          1 3Q3       0.613100
     19 C19          0.5830    -2.5410     0.4700 c6         1 3Q3       0.186800
     20 C20          2.1950    -0.7310     0.5400 c6         1 3Q3       0.189800
     21 C21          1.6200    -3.3600    -0.2760 c6         1 3Q3       0.140600
     22 C22          3.1620    -1.6340    -0.2260 c6         1 3Q3       0.067300
     23 N23         -2.0580     1.7470    -0.1610 nb         1 3Q3      -0.287000
     24 N24          0.2120     1.0680     0.0510 nb         1 3Q3      -0.346000
     25 N25         -8.2420     0.9930     0.3890 na         1 3Q3      -0.036500
     26 N26         -7.1450     1.7570     0.5620 nc         1 3Q3      -0.285400
     27 N27          0.8320    -1.1290     0.2570 nh         1 3Q3      -0.790300
     28 N28         -8.9790    -1.2050    -0.1770 nv         1 3Q3      -0.915000
     29 N29         -0.3510     3.2630    -0.1910 nv         1 3Q3      -1.084900
     30 N30          5.0800    -0.2110    -0.4460 ns         1 3Q3      -0.150000
     31 O31          5.1980    -1.9720     0.9990 o          1 3Q3      -0.544100
     32 O32          2.9360    -2.9830     0.0670 os         1 3Q3      -0.414000
     33 H1           9.6300     2.4290    -0.0140 ha         1 3Q3       0.115000
     34 H2           9.2870     0.3660     1.3160 ha         1 3Q3       0.113500
     35 H3           7.8150     3.2140    -1.5180 ha         1 3Q3       0.113500
     36 H5          -3.6730    -1.8520    -0.7770 ha         1 3Q3       0.110000
     37 H6           7.2080    -0.8970     1.1570 ha         1 3Q3       0.128000
     38 H7           5.7190     1.9590    -1.6850 ha         1 3Q3       0.128000
     39 H8          -4.3920     2.1840     0.5350 ha         1 3Q3       0.146000
     40 H9          -1.8600    -1.5730     0.2330 ha         1 3Q3       0.132000
     41 H19         -0.3940    -2.8260     0.0890 h1         1 3Q3       0.059200
     42 H19A         0.6080    -2.7770     1.5410 h1         1 3Q3       0.059200
     43 H20          2.3950    -0.8100     1.6170 h1         1 3Q3       0.075200
     44 H20A         2.3320     0.3070     0.2500 h1         1 3Q3       0.075200
     45 H21          1.5080    -4.4140    -0.0240 h1         1 3Q3       0.058200
     46 H21A         1.4600    -3.2490    -1.3570 h1         1 3Q3       0.058200
     47 H22          3.0280    -1.4480    -1.3030 h1         1 3Q3       0.052700
     48 HN28        -8.7270    -1.9640    -0.7900 hn         1 3Q3       0.459000
     49 HN2A        -9.9060    -0.8620    -0.3780 hn         1 3Q3       0.459000
     50 HN29         0.6190     3.5030    -0.0960 hn         1 3Q3       0.502000
     51 HN2B        -1.0300     4.0000    -0.2500 hn         1 3Q3       0.502000
     52 HN30         4.4730     0.2150    -1.1310 hn         1 3Q3       0.152000
     53 HN25        -9.1490     1.3950     0.5690 hn         1 3Q3       0.366000
     54 H4          -6.0580    -2.3480    -0.8000 ha         1 3Q3       0.107000
@<TRIPOS>BOND
     1     1     2 ar  
     2     1     3 ar  
     3     1    33 1   
     4     2     6 ar  
     5     2    34 1   
     6     3     7 ar  
     7     3    35 1   
     8     4     5 ar  
     9     4    10 ar  
    10     4    54 1   
    11     5    11 ar  
    12     5    36 1   
    13     6    13 ar  
    14     6    37 1   
    15     7    13 ar  
    16     7    38 1   
    17     8    11 ar  
    18     8    12 ar  
    19     8    39 1   
    20     9    14 ar  
    21     9    15 ar  
    22     9    40 1   
    23    10    12 ar  
    24    10    16 2   
    25    11    14 1   
    26    12    26 2   
    27    13    30 1   
    28    14    23 ar  
    29    15    24 ar  
    30    15    27 1   
    31    16    25 1   
    32    16    28 1   
    33    17    23 ar  
    34    17    24 ar  
    35    17    29 1   
    36    18    22 1   
    37    18    30 1   
    38    18    31 2   
    39    19    21 1   
    40    19    27 1   
    41    19    41 1   
    42    19    42 1   
    43    20    22 1   
    44    20    27 1   
    45    20    43 1   
    46    20    44 1   
    47    21    32 1   
    48    21    45 1   
    49    21    46 1   
    50    22    32 1   
    51    22    47 1   
    52    25    26 1   
    53    25    53 1   
    54    28    48 1   
    55    28    49 1   
    56    29    50 1   
    57    29    51 1   
    58    30    52 1   
@<TRIPOS>SUBSTRUCTURE
     1 3Q3         1 TEMP              0 ****  ****    0 ROOT
