@<TRIPOS>MOLECULE
3Q4
   59    63     1     0     0
SMALL
No Charge or Current Charge


@<TRIPOS>ATOM
      1 C1           6.2580     4.5720     0.3900 ca         1 3Q4      -0.136000
      2 C2           6.3550     3.5840     1.3820 ca         1 3Q4      -0.083500
      3 C3           5.4820     4.3370    -0.7560 ca         1 3Q4      -0.083500
      4 C4          -3.2980     2.4520    -1.0780 ca         1 3Q4      -0.048000
      5 C5          -2.5850     1.2530    -0.8820 ca         1 3Q4      -0.133000
      6 C6           5.6770     2.3610     1.2320 ca         1 3Q4      -0.149500
      7 C7           4.8040     3.1150    -0.9060 ca         1 3Q4      -0.149500
      8 C8          -4.5440     0.2410     0.1820 ca         1 3Q4      -0.039000
      9 C9          -1.0080    -1.2270    -0.0400 ca         1 3Q4      -0.339000
     10 C10         -4.6210     2.5010    -0.6300 ca         1 3Q4      -0.197000
     11 C11         -3.1860     0.1210    -0.2450 cp         1 3Q4      -0.141500
     12 C12         -5.2460     1.4410    -0.0170 ca         1 3Q4      -0.043000
     13 C13          4.8930     2.1150     0.0820 ca         1 3Q4      -0.022000
     14 C14         -2.4210    -1.1600    -0.0370 cp         1 3Q4       0.243500
     15 C15         -0.3930    -2.4720     0.1580 ca         1 3Q4       0.436900
     16 C16         -5.5970     3.5210    -0.6680 cc         1 3Q4       0.131900
     17 C17         -2.4500    -3.4200     0.3280 ca         1 3Q4       0.412900
     18 C18          4.0520    -0.2630     0.6000 c          1 3Q4       0.608100
     19 C19          3.9150    -2.6260    -0.4400 c6         1 3Q4      -0.066400
     20 C20          2.9340    -3.6320    -1.0900 c6         1 3Q4      -0.091400
     21 C21          1.8930    -1.6040     0.8220 c6         1 3Q4       0.236800
     22 C22          3.1530    -1.3400    -0.0300 c6         1 3Q4      -0.168700
     23 C23          1.6790    -3.9020    -0.2120 c6         1 3Q4       0.234500
     24 C24          2.0020    -4.7430     1.0550 c3         1 3Q4      -0.103100
     25 N25         -3.1340    -2.2850     0.1630 nb         1 3Q4      -0.284000
     26 N26         -1.1270    -3.5850     0.3300 nb         1 3Q4      -0.340000
     27 N27         -6.7490     3.0310    -0.0820 na         1 3Q4      -0.037500
     28 N28         -6.5750     1.7060     0.3500 nc         1 3Q4      -0.285400
     29 N29          1.0130    -2.6110     0.1560 nh         1 3Q4      -0.787300
     30 N30         -5.4660     4.7810    -1.1820 nv         1 3Q4      -0.915000
     31 N31         -3.1830    -4.5410     0.5110 nv         1 3Q4      -1.055900
     32 N32          4.1780     0.9060    -0.1420 ns         1 3Q4      -0.143000
     33 O33          4.5990    -0.4600     1.6790 o          1 3Q4      -0.582100
     34 H1           6.7840     5.5170     0.5080 ha         1 3Q4       0.115000
     35 H2           6.9570     3.7650     2.2710 ha         1 3Q4       0.113000
     36 H3           5.4050     5.1010    -1.5270 ha         1 3Q4       0.113000
     37 H5          -1.5620     1.2020    -1.2430 ha         1 3Q4       0.109000
     38 H6           5.7750     1.6230     2.0210 ha         1 3Q4       0.127500
     39 H7           4.2050     2.9460    -1.7990 ha         1 3Q4       0.127500
     40 H8          -5.0490    -0.5870     0.6740 ha         1 3Q4       0.147000
     41 H9          -0.4100    -0.3400    -0.2000 ha         1 3Q4       0.130000
     42 H19          4.3930    -3.0790     0.4400 hc         1 3Q4       0.054700
     43 H19A         4.7230    -2.3830    -1.1440 hc         1 3Q4       0.054700
     44 H20          2.6070    -3.2380    -2.0620 hc         1 3Q4       0.050700
     45 H20A         3.4530    -4.5760    -1.3050 hc         1 3Q4       0.050700
     46 H21          2.1930    -1.9650     1.8170 h1         1 3Q4       0.066200
     47 H21A         1.3690    -0.6520     0.9870 h1         1 3Q4       0.066200
     48 H22          2.7840    -0.9030    -0.9680 hc         1 3Q4       0.060700
     49 H23          0.9970    -4.5100    -0.8290 h1         1 3Q4       0.094700
     50 H24          2.7100    -4.2370     1.7220 hc         1 3Q4       0.043033
     51 H24A         1.0940    -4.9510     1.6320 hc         1 3Q4       0.043033
     52 H24B         2.4430    -5.7080     0.7790 hc         1 3Q4       0.043033
     53 HN30        -4.5720     5.0950    -1.5540 hn         1 3Q4       0.458000
     54 HN3A        -6.2160     5.4670    -1.1080 hn         1 3Q4       0.458000
     55 HN31        -2.7160    -5.4390     0.4180 hn         1 3Q4       0.485500
     56 HN3B        -4.1750    -4.5130     0.2910 hn         1 3Q4       0.485500
     57 HN32         3.6610     0.8970    -1.0110 hn         1 3Q4       0.150000
     58 HN27        -7.6270     3.5210     0.0430 hn         1 3Q4       0.366000
     59 H4          -2.8330     3.3060    -1.5650 ha         1 3Q4       0.107000
@<TRIPOS>BOND
     1     1     2 ar  
     2     1     3 ar  
     3     1    34 1   
     4     2     6 ar  
     5     2    35 1   
     6     3     7 ar  
     7     3    36 1   
     8     4     5 ar  
     9     4    10 ar  
    10     4    59 1   
    11     5    11 ar  
    12     5    37 1   
    13     6    13 ar  
    14     6    38 1   
    15     7    13 ar  
    16     7    39 1   
    17     8    11 ar  
    18     8    12 ar  
    19     8    40 1   
    20     9    14 ar  
    21     9    15 ar  
    22     9    41 1   
    23    10    12 ar  
    24    10    16 2   
    25    11    14 1   
    26    12    28 2   
    27    13    32 1   
    28    14    25 ar  
    29    15    26 ar  
    30    15    29 1   
    31    16    27 1   
    32    16    30 1   
    33    17    25 ar  
    34    17    26 ar  
    35    17    31 1   
    36    18    22 1   
    37    18    32 1   
    38    18    33 2   
    39    19    20 1   
    40    19    22 1   
    41    19    42 1   
    42    19    43 1   
    43    20    23 1   
    44    20    44 1   
    45    20    45 1   
    46    21    22 1   
    47    21    29 1   
    48    21    46 1   
    49    21    47 1   
    50    22    48 1   
    51    23    24 1   
    52    23    29 1   
    53    23    49 1   
    54    24    50 1   
    55    24    51 1   
    56    24    52 1   
    57    27    28 1   
    58    27    58 1   
    59    30    53 1   
    60    30    54 1   
    61    31    55 1   
    62    31    56 1   
    63    32    57 1   
@<TRIPOS>SUBSTRUCTURE
     1 3Q4         1 TEMP              0 ****  ****    0 ROOT
