@<TRIPOS>MOLECULE
3Q4
   59    63     1     0     0
SMALL
bcc


@<TRIPOS>ATOM
      1 C1           6.4650     4.3210    -0.1760 ca         1 3Q4      -0.154000
      2 C2           6.2980     3.5510     0.9650 ca         1 3Q4      -0.101500
      3 C3           5.8320     3.9300    -1.3490 ca         1 3Q4      -0.101500
      4 C4          -3.1840     2.5460    -0.3800 ca         1 3Q4      -0.066000
      5 C5          -2.4830     1.3740    -0.3730 ca         1 3Q4      -0.151000
      6 C6           5.5160     2.4030     0.9560 ca         1 3Q4      -0.167500
      7 C7           5.0510     2.7880    -1.3750 ca         1 3Q4      -0.167500
      8 C8          -4.5130     0.0330    -0.2730 ca         1 3Q4      -0.057000
      9 C9          -1.0440    -1.1610     0.1410 ca         1 3Q4      -0.487600
     10 C10         -4.5900     2.4850    -0.3190 ca         1 3Q4      -0.197000
     11 C11         -3.1430     0.1060    -0.3150 cp         1 3Q4      -0.141500
     12 C12         -5.2610     1.2320    -0.2670 ca         1 3Q4      -0.043000
     13 C13          4.8840     2.0110    -0.2250 ca         1 3Q4       0.070600
     14 C14         -2.3530    -1.1490    -0.2970 cp         1 3Q4       0.571800
     15 C15         -0.3640    -2.4010     0.1230 ca         1 3Q4       0.765200
     16 C16         -5.6250     3.4300    -0.3010 cc         1 3Q4       0.131900
     17 C17         -2.2700    -3.3750    -0.6720 ca         1 3Q4       0.938900
     18 C18          3.8000    -0.0960     0.5540 c          1 3Q4       0.675100
     19 C19          3.7410    -2.5060    -0.0970 c6         1 3Q4      -0.066400
     20 C20          2.8360    -3.6580    -0.5150 c6         1 3Q4      -0.091400
     21 C21          1.7430    -1.4410     0.9720 c6         1 3Q4       0.236800
     22 C22          2.9270    -1.2160     0.0260 c6         1 3Q4      -0.168700
     23 C23          1.6230    -3.8260     0.4020 c6         1 3Q4       0.234500
     24 C24          1.9780    -4.3950     1.7730 c3         1 3Q4      -0.103100
     25 N25         -2.9840    -2.2530    -0.7070 nb         1 3Q4      -0.810000
     26 N26         -1.0020    -3.4970    -0.2890 nb         1 3Q4      -0.866000
     27 N27         -6.7510     2.7110    -0.2440 na         1 3Q4       0.012800
     28 N28         -6.5820     1.3740    -0.2210 nc         1 3Q4      -0.285400
     29 N29          0.9240    -2.5430     0.5150 nh         1 3Q4      -0.787300
     30 N30         -5.5900     4.7900    -0.4000 nv         1 3Q4      -0.804600
     31 N31         -2.9050    -4.5150    -1.0360 nv         1 3Q4      -0.945500
     32 N32          4.0750     0.8750    -0.3510 ns         1 3Q4      -0.469100
     33 O33          4.2190    -0.1010     1.6990 o          1 3Q4      -0.582100
     34 H1           7.0770     5.2130    -0.1540 ha         1 3Q4       0.133000
     35 H2           6.7840     3.8420     1.8880 ha         1 3Q4       0.131000
     36 H3           5.9470     4.5130    -2.2530 ha         1 3Q4       0.131000
     37 H5          -1.4050     1.4140    -0.4460 ha         1 3Q4       0.127000
     38 H6           5.4060     1.8300     1.8610 ha         1 3Q4       0.145500
     39 H7           4.5640     2.4910    -2.2970 ha         1 3Q4       0.145500
     40 H8          -5.0120    -0.9260    -0.2360 ha         1 3Q4       0.165000
     41 H9          -0.5860    -0.2520     0.4910 ha         1 3Q4       0.148000
     42 H19          4.2180    -2.7240     0.8620 hc         1 3Q4       0.054700
     43 H19A         4.5430    -2.3790    -0.8280 hc         1 3Q4       0.054700
     44 H20          2.4800    -3.4860    -1.5350 hc         1 3Q4       0.050700
     45 H20A         3.4030    -4.5910    -0.5330 hc         1 3Q4       0.050700
     46 H21          2.1150    -1.6530     1.9770 h1         1 3Q4       0.066200
     47 H21A         1.1550    -0.5320     1.0510 h1         1 3Q4       0.066200
     48 H22          2.5280    -0.9550    -0.9610 hc         1 3Q4       0.060700
     49 H23          0.9330    -4.5160    -0.0750 h1         1 3Q4       0.094700
     50 H24          2.7090    -3.7950     2.3150 hc         1 3Q4       0.043033
     51 H24A         1.0860    -4.4830     2.3940 hc         1 3Q4       0.043033
     52 H24B         2.4020    -5.3940     1.6560 hc         1 3Q4       0.043033
     53 HN30        -4.7300     5.2100    -0.0850 hn         1 3Q4       0.402800
     54 HN3A        -6.3920     5.2840    -0.0400 hn         1 3Q4       0.402800
     55 HN31        -2.3420    -5.3210    -1.2480 hn         1 3Q4       0.430300
     56 HN3B        -3.7640    -4.4260    -1.5510 hn         1 3Q4       0.430300
     57 HN32         3.6600     0.7580    -1.2630 hn         1 3Q4       0.316500
     58 HN27        -7.6880     3.0840    -0.2170 hn         1 3Q4       0.315700
     59 H4          -2.6620     3.4930    -0.4430 ha         1 3Q4       0.125000
@<TRIPOS>BOND
     1     1     2 ar  
     2     1     3 ar  
     3     1    34 1   
     4     2     6 ar  
     5     2    35 1   
     6     3     7 ar  
     7     3    36 1   
     8     4     5 ar  
     9     4    10 ar  
    10     4    59 1   
    11     5    11 ar  
    12     5    37 1   
    13     6    13 ar  
    14     6    38 1   
    15     7    13 ar  
    16     7    39 1   
    17     8    11 ar  
    18     8    12 ar  
    19     8    40 1   
    20     9    14 ar  
    21     9    15 ar  
    22     9    41 1   
    23    10    12 ar  
    24    10    16 2   
    25    11    14 1   
    26    12    28 2   
    27    13    32 1   
    28    14    25 ar  
    29    15    26 ar  
    30    15    29 1   
    31    16    27 1   
    32    16    30 1   
    33    17    25 ar  
    34    17    26 ar  
    35    17    31 1   
    36    18    22 1   
    37    18    32 1   
    38    18    33 2   
    39    19    20 1   
    40    19    22 1   
    41    19    42 1   
    42    19    43 1   
    43    20    23 1   
    44    20    44 1   
    45    20    45 1   
    46    21    22 1   
    47    21    29 1   
    48    21    46 1   
    49    21    47 1   
    50    22    48 1   
    51    23    24 1   
    52    23    29 1   
    53    23    49 1   
    54    24    50 1   
    55    24    51 1   
    56    24    52 1   
    57    27    28 1   
    58    27    58 1   
    59    30    53 1   
    60    30    54 1   
    61    31    55 1   
    62    31    56 1   
    63    32    57 1   
@<TRIPOS>SUBSTRUCTURE
     1 3Q4         1 TEMP              0 ****  ****    0 ROOT
