@<TRIPOS>MOLECULE
3Q5
   62    65     1     0     0
SMALL
abcg2


@<TRIPOS>ATOM
      1 C1          -3.6030    -2.3790     0.7690 ca         1 3Q5      -0.048000
      2 C2          -2.8530    -1.2380     0.7490 ca         1 3Q5      -0.132000
      3 C3          -4.4620    -0.0750    -0.6630 ca         1 3Q5      -0.041000
      4 C4          -1.0740     1.0720     0.2580 ca         1 3Q5      -0.334000
      5 C5          -4.8140    -2.3950     0.0520 ca         1 3Q5      -0.197000
      6 C6          -3.2750    -0.0770     0.0270 cp         1 3Q5      -0.139500
      7 C7          -5.2530    -1.2470    -0.6640 ca         1 3Q5      -0.042000
      8 C8          -2.4320     1.1430     0.0160 cp         1 3Q5       0.242500
      9 C9          -0.3440     2.2820     0.2120 ca         1 3Q5       0.435900
     10 C10         -5.8270    -3.3410    -0.1620 cc         1 3Q5       0.131900
     11 C11         -2.2830     3.3760    -0.2900 ca         1 3Q5       0.410900
     12 C12          4.4290    -0.9770    -0.3240 c          1 3Q5       0.650100
     13 C13          3.8220     2.2620    -0.1340 c6         1 3Q5      -0.098400
     14 C14          2.9470     3.4290    -0.5690 c6         1 3Q5      -0.084400
     15 C15          1.7780     1.2150     0.8670 c6         1 3Q5       0.218800
     16 C16          2.9890     0.9900    -0.0380 c6         1 3Q5       0.104700
     17 C17          1.7170     3.6170     0.3210 c6         1 3Q5       0.234500
     18 C18          2.0470     4.1860     1.6980 c3         1 3Q5      -0.105100
     19 C19          6.5780    -3.5390     1.0680 c3         1 3Q5      -0.108433
     20 C20          7.1250    -2.2250    -0.9790 c3         1 3Q5      -0.108433
     21 C21          5.1800    -3.8380    -0.9760 c3         1 3Q5      -0.108433
     22 C22          6.0000    -2.8450    -0.1600 c3         1 3Q5       0.225000
     23 N23         -3.0540     2.2920    -0.2610 nb         1 3Q5      -0.282000
     24 N24         -0.9740     3.4250    -0.0590 nb         1 3Q5      -0.339000
     25 N25         -6.7230    -2.7210    -0.9360 na         1 3Q5      -0.038500
     26 N26         -6.4200    -1.4490    -1.2670 nc         1 3Q5      -0.286400
     27 N27          0.9940     2.3470     0.4190 nh         1 3Q5      -0.786300
     28 N28         -5.9840    -4.6000     0.3380 nv         1 3Q5      -0.915000
     29 N29         -2.8980     4.5580    -0.5360 nv         1 3Q5      -1.054900
     30 N30          3.7430    -0.1310     0.4750 ns         1 3Q5      -0.501900
     31 O31          4.3690    -0.9770    -1.5370 o          1 3Q5      -0.545000
     32 O32          5.1550    -1.8140     0.4170 os         1 3Q5      -0.482100
     33 H1          -3.2730    -3.2400     1.3380 ha         1 3Q5       0.107000
     34 H2          -1.9350    -1.2060     1.3200 ha         1 3Q5       0.111000
     35 H3          -4.7840     0.8060    -1.2010 ha         1 3Q5       0.145000
     36 H4          -0.6060     0.1190     0.4350 ha         1 3Q5       0.132000
     37 H13          4.6410     2.1170    -0.8420 hc         1 3Q5       0.049200
     38 H13A         4.2780     2.4640     0.8410 hc         1 3Q5       0.049200
     39 H14          3.5250     4.3560    -0.5770 hc         1 3Q5       0.053200
     40 H14A         2.6080     3.2630    -1.5960 hc         1 3Q5       0.053200
     41 H15          1.1800     0.3110     0.8850 h1         1 3Q5       0.052200
     42 H15A         2.1190     1.3800     1.8970 h1         1 3Q5       0.052200
     43 H16          2.6210     0.7230    -1.0310 h1         1 3Q5       0.093700
     44 H17          1.0520     4.3180    -0.1750 h1         1 3Q5       0.093700
     45 H18          2.5160     5.1650     1.5900 hc         1 3Q5       0.040033
     46 H18A         1.1380     4.3160     2.2850 hc         1 3Q5       0.040033
     47 H18B         2.7310     3.5580     2.2710 hc         1 3Q5       0.040033
     48 H19          7.1370    -2.8400     1.6920 hc         1 3Q5       0.049367
     49 H19A         5.7940    -3.9940     1.6750 hc         1 3Q5       0.049367
     50 H19B         7.2600    -4.3300     0.7580 hc         1 3Q5       0.049367
     51 H20          6.7630    -1.7330    -1.8790 hc         1 3Q5       0.049367
     52 H20A         7.6860    -1.5000    -0.3860 hc         1 3Q5       0.049367
     53 H20B         7.8200    -3.0090    -1.2840 hc         1 3Q5       0.049367
     54 H21          5.7910    -4.7150    -1.1920 hc         1 3Q5       0.049367
     55 H21A         4.3080    -4.1760    -0.4150 hc         1 3Q5       0.049367
     56 H21B         4.8460    -3.4220    -1.9230 hc         1 3Q5       0.049367
     57 HN28        -5.1230    -5.0660     0.5750 hn         1 3Q5       0.458000
     58 HN2A        -6.6030    -5.2100    -0.1750 hn         1 3Q5       0.458000
     59 HN29        -3.8160     4.5290    -0.9460 hn         1 3Q5       0.484500
     60 HN2B        -2.3220     5.3400    -0.7980 hn         1 3Q5       0.484500
     61 HN30         3.9710    -0.1260     1.4580 hn         1 3Q5       0.317500
     62 HN25        -7.5830    -3.1220    -1.2800 hn         1 3Q5       0.365000
@<TRIPOS>BOND
     1     1     2 ar  
     2     1     5 ar  
     3     1    33 1   
     4     2     6 ar  
     5     2    34 1   
     6     3     6 ar  
     7     3     7 ar  
     8     3    35 1   
     9     4     8 ar  
    10     4     9 ar  
    11     4    36 1   
    12     5     7 ar  
    13     5    10 2   
    14     6     8 1   
    15     7    26 2   
    16     8    23 ar  
    17     9    24 ar  
    18     9    27 1   
    19    10    25 1   
    20    10    28 1   
    21    11    23 ar  
    22    11    24 ar  
    23    11    29 1   
    24    12    30 1   
    25    12    31 2   
    26    12    32 1   
    27    13    14 1   
    28    13    16 1   
    29    13    37 1   
    30    13    38 1   
    31    14    17 1   
    32    14    39 1   
    33    14    40 1   
    34    15    16 1   
    35    15    27 1   
    36    15    41 1   
    37    15    42 1   
    38    16    30 1   
    39    16    43 1   
    40    17    18 1   
    41    17    27 1   
    42    17    44 1   
    43    18    45 1   
    44    18    46 1   
    45    18    47 1   
    46    19    22 1   
    47    19    48 1   
    48    19    49 1   
    49    19    50 1   
    50    20    22 1   
    51    20    51 1   
    52    20    52 1   
    53    20    53 1   
    54    21    22 1   
    55    21    54 1   
    56    21    55 1   
    57    21    56 1   
    58    22    32 1   
    59    25    26 1   
    60    25    62 1   
    61    28    57 1   
    62    28    58 1   
    63    29    59 1   
    64    29    60 1   
    65    30    61 1   
@<TRIPOS>SUBSTRUCTURE
     1 3Q5         1 TEMP              0 ****  ****    0 ROOT
