@<TRIPOS>MOLECULE
3Q5
   62    65     1     0     0
SMALL
No Charge or Current Charge


@<TRIPOS>ATOM
      1 C1          -3.6760    -2.5550     0.0730 ca         1 3Q5      -0.048000
      2 C2          -2.8760    -1.4060     0.2270 ca         1 3Q5      -0.132000
      3 C3          -4.7920     0.0220    -0.3070 ca         1 3Q5      -0.041000
      4 C4          -1.1390     1.1040     0.1200 ca         1 3Q5      -0.334000
      5 C5          -5.0190    -2.3700    -0.2720 ca         1 3Q5      -0.197000
      6 C6          -3.4100    -0.0920     0.0390 cp         1 3Q5      -0.139500
      7 C7          -5.5810    -1.1300    -0.4590 ca         1 3Q5      -0.042000
      8 C8          -2.5510     1.1330     0.2060 cp         1 3Q5       0.242500
      9 C9          -0.4300     2.3030     0.2840 ca         1 3Q5       0.435900
     10 C10         -6.0730    -3.2820    -0.4990 cc         1 3Q5       0.131900
     11 C11         -2.4050     3.3910     0.5560 ca         1 3Q5       0.410900
     12 C12          4.6530    -1.0240    -0.3190 c          1 3Q5       0.650100
     13 C13          3.8300     2.1480    -0.5340 c6         1 3Q5      -0.098400
     14 C14          2.9120     3.2560    -1.1120 c6         1 3Q5      -0.084400
     15 C15          1.8370     1.2550     0.7590 c6         1 3Q5       0.218800
     16 C16          3.0040     0.8810    -0.2000 c6         1 3Q5       0.104700
     17 C17          1.7140     3.5960    -0.1800 c6         1 3Q5       0.234500
     18 C18          2.1480     4.3860     1.0870 c3         1 3Q5      -0.105100
     19 C19          6.7510    -3.4540     1.4950 c3         1 3Q5      -0.108433
     20 C20          7.4290    -2.2140    -0.6090 c3         1 3Q5      -0.108433
     21 C21          5.4890    -3.9240    -0.6520 c3         1 3Q5      -0.108433
     22 C22          6.2450    -2.8470     0.1670 c3         1 3Q5       0.225000
     23 N23         -3.1740     2.3070     0.4260 nb         1 3Q5      -0.282000
     24 N24         -1.0760     3.4630     0.4950 nb         1 3Q5      -0.339000
     25 N25         -7.2060    -2.5540    -0.8110 na         1 3Q5      -0.038500
     26 N26         -6.9430    -1.1740    -0.7980 nc         1 3Q5      -0.286400
     27 N27          0.9800     2.3470     0.1960 nh         1 3Q5      -0.786300
     28 N28         -6.0230    -4.6460    -0.4330 nv         1 3Q5      -0.915000
     29 N29         -3.0490     4.5610     0.7700 nv         1 3Q5      -1.054900
     30 N30          3.8710    -0.1550     0.3840 ns         1 3Q5      -0.501900
     31 O31          4.7140    -1.0710    -1.5360 o          1 3Q5      -0.545000
     32 O32          5.3230    -1.8110     0.5780 os         1 3Q5      -0.482100
     33 H1          -3.2610    -3.5500     0.2200 ha         1 3Q5       0.107000
     34 H2          -1.8360    -1.5410     0.5110 ha         1 3Q5       0.111000
     35 H3          -5.2490     0.9960    -0.4640 ha         1 3Q5       0.145000
     36 H4          -0.6170     0.1830    -0.1060 ha         1 3Q5       0.132000
     37 H13          4.6140     1.9030    -1.2630 hc         1 3Q5       0.049200
     38 H13A         4.3450     2.5130     0.3660 hc         1 3Q5       0.049200
     39 H14          3.4990     4.1620    -1.3140 hc         1 3Q5       0.053200
     40 H14A         2.5220     2.9250    -2.0840 hc         1 3Q5       0.053200
     41 H15          1.2500     0.3490     0.9610 h1         1 3Q5       0.052200
     42 H15A         2.2520     1.5700     1.7270 h1         1 3Q5       0.052200
     43 H16          2.5660     0.4860    -1.1290 h1         1 3Q5       0.093700
     44 H17          1.0510     4.2600    -0.7570 h1         1 3Q5       0.093700
     45 H18          2.6440     5.3230     0.8090 hc         1 3Q5       0.040033
     46 H18A         1.2810     4.6460     1.7060 hc         1 3Q5       0.040033
     47 H18B         2.8440     3.8190     1.7140 hc         1 3Q5       0.040033
     48 H19          7.2510    -2.6930     2.1060 hc         1 3Q5       0.049367
     49 H19A         5.9190    -3.8680     2.0770 hc         1 3Q5       0.049367
     50 H19B         7.4680    -4.2620     1.3060 hc         1 3Q5       0.049367
     51 H20          7.1340    -1.8890    -1.6120 hc         1 3Q5       0.049367
     52 H20A         7.8300    -1.3480    -0.0680 hc         1 3Q5       0.049367
     53 H20B         8.2400    -2.9420    -0.7290 hc         1 3Q5       0.049367
     54 H21          6.1130    -4.8170    -0.7760 hc         1 3Q5       0.049367
     55 H21A         4.5660    -4.2250    -0.1420 hc         1 3Q5       0.049367
     56 H21B         5.2300    -3.5700    -1.6550 hc         1 3Q5       0.049367
     57 HN28        -5.1660    -5.1190    -0.1510 hn         1 3Q5       0.458000
     58 HN2A        -6.8580    -5.2170    -0.5620 hn         1 3Q5       0.458000
     59 HN29        -4.0500     4.5980     0.5990 hn         1 3Q5       0.484500
     60 HN2B        -2.5290     5.4260     0.6550 hn         1 3Q5       0.484500
     61 HN30         3.9310    -0.2380     1.3900 hn         1 3Q5       0.317500
     62 HN25        -8.1260    -2.9200    -1.0270 hn         1 3Q5       0.365000
@<TRIPOS>BOND
     1     1     2 ar  
     2     1     5 ar  
     3     1    33 1   
     4     2     6 ar  
     5     2    34 1   
     6     3     6 ar  
     7     3     7 ar  
     8     3    35 1   
     9     4     8 ar  
    10     4     9 ar  
    11     4    36 1   
    12     5     7 ar  
    13     5    10 2   
    14     6     8 1   
    15     7    26 2   
    16     8    23 ar  
    17     9    24 ar  
    18     9    27 1   
    19    10    25 1   
    20    10    28 1   
    21    11    23 ar  
    22    11    24 ar  
    23    11    29 1   
    24    12    30 1   
    25    12    31 2   
    26    12    32 1   
    27    13    14 1   
    28    13    16 1   
    29    13    37 1   
    30    13    38 1   
    31    14    17 1   
    32    14    39 1   
    33    14    40 1   
    34    15    16 1   
    35    15    27 1   
    36    15    41 1   
    37    15    42 1   
    38    16    30 1   
    39    16    43 1   
    40    17    18 1   
    41    17    27 1   
    42    17    44 1   
    43    18    45 1   
    44    18    46 1   
    45    18    47 1   
    46    19    22 1   
    47    19    48 1   
    48    19    49 1   
    49    19    50 1   
    50    20    22 1   
    51    20    51 1   
    52    20    52 1   
    53    20    53 1   
    54    21    22 1   
    55    21    54 1   
    56    21    55 1   
    57    21    56 1   
    58    22    32 1   
    59    25    26 1   
    60    25    62 1   
    61    28    57 1   
    62    28    58 1   
    63    29    59 1   
    64    29    60 1   
    65    30    61 1   
@<TRIPOS>SUBSTRUCTURE
     1 3Q5         1 TEMP              0 ****  ****    0 ROOT
