@<TRIPOS>MOLECULE
3Q6
   62    65     1     0     0
SMALL
No Charge or Current Charge


@<TRIPOS>ATOM
      1 C1          -3.0470    -1.9530    -0.3250 ca         1 3Q6      -0.052000
      2 C2          -2.2200    -0.8810     0.0680 ca         1 3Q6      -0.123000
      3 C3          -3.9720     0.7170    -0.5450 ca         1 3Q6      -0.044000
      4 C4          -0.3670     1.5050     0.4980 ca         1 3Q6      -0.327000
      5 C5          -4.3180    -1.6450    -0.8200 ca         1 3Q6      -0.193000
      6 C6          -2.6580     0.4770    -0.0350 cp         1 3Q6      -0.138500
      7 C7          -4.7870    -0.3580    -0.9340 ca         1 3Q6      -0.044000
      8 C8          -1.7720     1.6200     0.3850 cp         1 3Q6       0.240500
      9 C9           0.3720     2.6340     0.8890 ca         1 3Q6       0.414900
     10 C10         -5.3740    -2.4560    -1.2890 cc         1 3Q6       0.125900
     11 C11         -1.5640     3.8160     1.0050 ca         1 3Q6       0.403900
     12 C12          3.4080    -1.6240     0.1550 c          1 3Q6       0.648100
     13 C13          4.0720     1.9920    -0.7080 c6         1 3Q6      -0.083400
     14 C14          2.6280     3.7250     0.5040 c6         1 3Q6       0.218800
     15 C15          2.5350     1.3340     1.1960 c6         1 3Q6       0.188800
     16 C16          3.2980     3.3360    -0.8470 c6         1 3Q6      -0.085700
     17 C17          3.1670     0.8630    -0.1470 c6         1 3Q6       0.095700
     18 C18          2.2750     3.3120    -2.0210 c3         1 3Q6      -0.088100
     19 C19          5.6410    -4.5230     0.6020 c3         1 3Q6      -0.108767
     20 C20          3.5190    -4.5070    -0.7840 c3         1 3Q6      -0.108767
     21 C21          3.4240    -4.1860     1.7810 c3         1 3Q6      -0.108767
     22 C22          4.2200    -3.9330     0.4750 c3         1 3Q6       0.225000
     23 N23         -2.3590     2.8050     0.6430 nb         1 3Q6      -0.282000
     24 N24         -0.2370     3.8040     1.1420 nb         1 3Q6      -0.323000
     25 N25         -6.4160    -1.6270    -1.6610 na         1 3Q6      -0.037500
     26 N26         -6.0890    -0.2770    -1.4530 nc         1 3Q6      -0.289400
     27 N27          1.7790     2.6080     1.0160 nh         1 3Q6      -0.768300
     28 N28         -5.4020    -3.8200    -1.3770 nv         1 3Q6      -0.912000
     29 N29         -2.1740     4.9960     1.2580 nv         1 3Q6      -1.056900
     30 N30          3.9400    -0.3750     0.0290 ns         1 3Q6      -0.502900
     31 O31          2.2130    -1.8680     0.1430 o          1 3Q6      -0.551000
     32 O32          4.4370    -2.5120     0.3050 os         1 3Q6      -0.479100
     33 H1          -2.7060    -2.9820    -0.2410 ha         1 3Q6       0.107000
     34 H2          -1.2380    -1.1150     0.4680 ha         1 3Q6       0.120000
     35 H3          -4.3540     1.7300    -0.6460 ha         1 3Q6       0.145000
     36 H4           0.1310     0.5760     0.2550 ha         1 3Q6       0.150000
     37 H13          4.4870     1.6930    -1.6810 hc         1 3Q6       0.046200
     38 H13A         4.9320     2.1390    -0.0390 hc         1 3Q6       0.046200
     39 H14          3.4110     3.9580     1.2410 h1         1 3Q6       0.067200
     40 H14A         2.0500     4.6520     0.3700 h1         1 3Q6       0.067200
     41 H15          1.8890     0.5440     1.6050 h1         1 3Q6       0.063200
     42 H15A         3.3350     1.4820     1.9370 h1         1 3Q6       0.063200
     43 H16          4.0220     4.1230    -1.1020 hc         1 3Q6       0.053700
     44 H17          2.3590     0.6600    -0.8640 h1         1 3Q6       0.087700
     45 H18          1.4850     2.5690    -1.8640 hc         1 3Q6       0.038700
     46 H18A         1.7890     4.2880    -2.1370 hc         1 3Q6       0.038700
     47 H18B         2.7690     3.0760    -2.9710 hc         1 3Q6       0.038700
     48 H19          6.2320    -4.3140    -0.2980 hc         1 3Q6       0.049478
     49 H19A         6.1670    -4.0940     1.4630 hc         1 3Q6       0.049478
     50 H19B         5.6020    -5.6110     0.7360 hc         1 3Q6       0.049478
     51 H20          2.4650    -4.2140    -0.8370 hc         1 3Q6       0.049478
     52 H20A         4.0200    -4.1660    -1.6980 hc         1 3Q6       0.049478
     53 H20B         3.5500    -5.6030    -0.7710 hc         1 3Q6       0.049478
     54 H21          3.4460    -5.2510     2.0410 hc         1 3Q6       0.049478
     55 H21A         3.8580    -3.6250     2.6170 hc         1 3Q6       0.049478
     56 H21B         2.3710    -3.9000     1.6820 hc         1 3Q6       0.049478
     57 HN28        -4.6120    -4.3750    -1.0520 hn         1 3Q6       0.455500
     58 HN2A        -6.2330    -4.3180    -1.6930 hn         1 3Q6       0.455500
     59 HN29        -1.5980     5.8320     1.3200 hn         1 3Q6       0.484500
     60 HN2B        -3.1370     5.1210     0.9570 hn         1 3Q6       0.484500
     61 HN30         4.9500    -0.3260     0.0590 hn         1 3Q6       0.322500
     62 HN25        -7.3140    -1.9060    -2.0380 hn         1 3Q6       0.364000
@<TRIPOS>BOND
     1     1     2 ar  
     2     1     5 ar  
     3     1    33 1   
     4     2     6 ar  
     5     2    34 1   
     6     3     6 ar  
     7     3     7 ar  
     8     3    35 1   
     9     4     8 ar  
    10     4     9 ar  
    11     4    36 1   
    12     5     7 ar  
    13     5    10 2   
    14     6     8 1   
    15     7    26 2   
    16     8    23 ar  
    17     9    24 ar  
    18     9    27 1   
    19    10    25 1   
    20    10    28 1   
    21    11    23 ar  
    22    11    24 ar  
    23    11    29 1   
    24    12    30 1   
    25    12    31 2   
    26    12    32 1   
    27    13    16 1   
    28    13    17 1   
    29    13    37 1   
    30    13    38 1   
    31    14    16 1   
    32    14    27 1   
    33    14    39 1   
    34    14    40 1   
    35    15    17 1   
    36    15    27 1   
    37    15    41 1   
    38    15    42 1   
    39    16    18 1   
    40    16    43 1   
    41    17    30 1   
    42    17    44 1   
    43    18    45 1   
    44    18    46 1   
    45    18    47 1   
    46    19    22 1   
    47    19    48 1   
    48    19    49 1   
    49    19    50 1   
    50    20    22 1   
    51    20    51 1   
    52    20    52 1   
    53    20    53 1   
    54    21    22 1   
    55    21    54 1   
    56    21    55 1   
    57    21    56 1   
    58    22    32 1   
    59    25    26 1   
    60    25    62 1   
    61    28    57 1   
    62    28    58 1   
    63    29    59 1   
    64    29    60 1   
    65    30    61 1   
@<TRIPOS>SUBSTRUCTURE
     1 3Q6         1 TEMP              0 ****  ****    0 ROOT
