@<TRIPOS>MOLECULE
3Q6
   62    65     1     0     0
SMALL
bcc


@<TRIPOS>ATOM
      1 C1          -2.7630    -2.0960     0.1000 ca         1 3Q6      -0.070000
      2 C2          -2.0140    -0.9870     0.3700 ca         1 3Q6      -0.141000
      3 C3          -3.6780     0.5050    -0.5970 ca         1 3Q6      -0.062000
      4 C4          -0.2670     1.3820     0.5580 ca         1 3Q6      -0.475600
      5 C5          -4.0040    -1.9260    -0.5420 ca         1 3Q6      -0.193000
      6 C6          -2.4640     0.3260     0.0190 cp         1 3Q6      -0.138500
      7 C7          -4.4690    -0.6280    -0.8930 ca         1 3Q6      -0.044000
      8 C8          -1.6200     1.5090     0.3090 cp         1 3Q6       0.568800
      9 C9           0.4570     2.5690     0.7990 ca         1 3Q6       0.743200
     10 C10         -5.0240    -2.7850    -0.9740 cc         1 3Q6       0.125900
     11 C11         -1.4540     3.7600     0.4910 ca         1 3Q6       0.929900
     12 C12          3.2940    -1.4430    -0.0610 c          1 3Q6       0.764100
     13 C13          4.1100     2.1450    -0.5220 c6         1 3Q6      -0.083400
     14 C14          2.6400     3.6970     0.8210 c6         1 3Q6       0.218800
     15 C15          2.5280     1.3260     1.2040 c6         1 3Q6       0.188800
     16 C16          3.3880     3.5000    -0.5040 c6         1 3Q6      -0.085700
     17 C17          3.1840     0.9930    -0.1370 c6         1 3Q6       0.095700
     18 C18          2.4680     3.6750    -1.7090 c3         1 3Q6      -0.088100
     19 C19          5.0890    -4.5310     0.5220 c3         1 3Q6      -0.108767
     20 C20          3.2310    -4.3040    -1.1250 c3         1 3Q6      -0.108767
     21 C21          2.7850    -4.0550     1.3490 c3         1 3Q6      -0.108767
     22 C22          3.7760    -3.8220     0.2130 c3         1 3Q6       0.201800
     23 N23         -2.2280     2.6970     0.2830 nb         1 3Q6      -0.808000
     24 N24         -0.1490     3.7530     0.7500 nb         1 3Q6      -0.849000
     25 N25         -5.9470    -1.9830    -1.5140 na         1 3Q6       0.012800
     26 N26         -5.6560    -0.6680    -1.4900 nc         1 3Q6      -0.289400
     27 N27          1.7800     2.5580     1.1000 nh         1 3Q6      -0.768300
     28 N28         -5.1030    -4.1470    -0.9610 nv         1 3Q6      -0.801600
     29 N29         -2.0650     4.9700     0.4810 nv         1 3Q6      -0.946500
     30 N30          3.9230    -0.2470    -0.0730 ns         1 3Q6      -0.569900
     31 O31          2.0970    -1.5810    -0.2210 o          1 3Q6      -0.600000
     32 O32          4.1710    -2.4260     0.1340 os         1 3Q6      -0.455900
     33 H1          -2.4040    -3.0790     0.3810 ha         1 3Q6       0.125000
     34 H2          -1.0690    -1.1100     0.8810 ha         1 3Q6       0.138000
     35 H3          -4.0210     1.4980    -0.8570 ha         1 3Q6       0.163000
     36 H4           0.2260     0.4260     0.4860 ha         1 3Q6       0.168000
     37 H13          4.5450     1.9640    -1.5080 hc         1 3Q6       0.046200
     38 H13A         4.9420     2.1740     0.1920 hc         1 3Q6       0.046200
     39 H14          3.3590     3.7880     1.6410 h1         1 3Q6       0.067200
     40 H14A         2.0470     4.6070     0.8010 h1         1 3Q6       0.067200
     41 H15          1.9010     0.5130     1.5640 h1         1 3Q6       0.063200
     42 H15A         3.3100     1.4710     1.9560 h1         1 3Q6       0.063200
     43 H16          4.1530     4.2800    -0.5540 hc         1 3Q6       0.053700
     44 H17          2.4010     0.8800    -0.8930 h1         1 3Q6       0.087700
     45 H18          1.6780     2.9230    -1.7520 hc         1 3Q6       0.038700
     46 H18A         1.9840     4.6520    -1.6920 hc         1 3Q6       0.038700
     47 H18B         3.0350     3.6030    -2.6380 hc         1 3Q6       0.038700
     48 H19          5.8240    -4.3670    -0.2670 hc         1 3Q6       0.049478
     49 H19A         5.5140    -4.1890     1.4670 hc         1 3Q6       0.049478
     50 H19B         4.9200    -5.6050     0.6020 hc         1 3Q6       0.049478
     51 H20          2.2970    -3.8140    -1.3920 hc         1 3Q6       0.049478
     52 H20A         3.9550    -4.1380    -1.9240 hc         1 3Q6       0.049478
     53 H20B         3.0400    -5.3770    -1.0720 hc         1 3Q6       0.049478
     54 H21          2.6830    -5.1280     1.5150 hc         1 3Q6       0.049478
     55 H21A         3.1440    -3.6120     2.2790 hc         1 3Q6       0.049478
     56 H21B         1.7980    -3.6550     1.1300 hc         1 3Q6       0.049478
     57 HN28        -4.5710    -4.5870    -0.2270 hn         1 3Q6       0.400300
     58 HN2A        -6.0320    -4.5370    -1.0210 hn         1 3Q6       0.400300
     59 HN29        -1.4870     5.7890     0.4050 hn         1 3Q6       0.429300
     60 HN2B        -2.9750     5.0280     0.0560 hn         1 3Q6       0.429300
     61 HN30         4.9030    -0.2110     0.1600 hn         1 3Q6       0.322500
     62 HN25        -6.8170    -2.2810    -1.9290 hn         1 3Q6       0.313700
@<TRIPOS>BOND
     1     1     2 ar  
     2     1     5 ar  
     3     1    33 1   
     4     2     6 ar  
     5     2    34 1   
     6     3     6 ar  
     7     3     7 ar  
     8     3    35 1   
     9     4     8 ar  
    10     4     9 ar  
    11     4    36 1   
    12     5     7 ar  
    13     5    10 2   
    14     6     8 1   
    15     7    26 2   
    16     8    23 ar  
    17     9    24 ar  
    18     9    27 1   
    19    10    25 1   
    20    10    28 1   
    21    11    23 ar  
    22    11    24 ar  
    23    11    29 1   
    24    12    30 1   
    25    12    31 2   
    26    12    32 1   
    27    13    16 1   
    28    13    17 1   
    29    13    37 1   
    30    13    38 1   
    31    14    16 1   
    32    14    27 1   
    33    14    39 1   
    34    14    40 1   
    35    15    17 1   
    36    15    27 1   
    37    15    41 1   
    38    15    42 1   
    39    16    18 1   
    40    16    43 1   
    41    17    30 1   
    42    17    44 1   
    43    18    45 1   
    44    18    46 1   
    45    18    47 1   
    46    19    22 1   
    47    19    48 1   
    48    19    49 1   
    49    19    50 1   
    50    20    22 1   
    51    20    51 1   
    52    20    52 1   
    53    20    53 1   
    54    21    22 1   
    55    21    54 1   
    56    21    55 1   
    57    21    56 1   
    58    22    32 1   
    59    25    26 1   
    60    25    62 1   
    61    28    57 1   
    62    28    58 1   
    63    29    59 1   
    64    29    60 1   
    65    30    61 1   
@<TRIPOS>SUBSTRUCTURE
     1 3Q6         1 TEMP              0 ****  ****    0 ROOT
