@<TRIPOS>MOLECULE
3QA
   53    55     1     0     0
SMALL
abcg2


@<TRIPOS>ATOM
      1 C5          39.0630    73.6200    22.1570 c3         1 3QA      -0.064400
      2 C4          37.9110    73.3620    23.1240 c5         1 3QA      -0.072700
      3 C3          36.8020    74.4390    23.1210 c5         1 3QA       0.164300
      4 O3          35.6370    73.8820    22.4950 oh         1 3QA      -0.661000
      5 C2          36.5930    74.7810    24.6020 c5         1 3QA       0.133800
      6 C1          38.3400    73.2790    24.5910 c5         1 3QA       0.161800
      7 C8          39.5050    74.8110    27.4380 cc         1 3QA      -0.132100
      8 N7          39.9730    76.0210    27.8770 na         1 3QA      -0.209700
      9 C7          38.9110    76.8850    27.9970 ca         1 3QA      -0.212200
     10 C6          38.7960    78.2210    28.4120 ca         1 3QA       0.381900
     11 N1          37.5750    78.7750    28.4160 nb         1 3QA      -0.264000
     12 C12         36.5260    78.0280    28.0290 ca         1 3QA       0.136900
     13 N3          36.5220    76.7690    27.6290 nb         1 3QA      -0.173000
     14 C11         37.7490    76.1880    27.6130 ca         1 3QA       0.130800
     15 N2          37.1190    73.6190    25.3130 n3         1 3QA      -0.712600
     16 C13         38.6240    73.5460    20.7000 c3         1 3QA       0.061600
     17 S6          39.9660    73.7830    19.4880 ss         1 3QA      -0.425000
     18 C20         40.8980    72.2240    19.6610 c3         1 3QA       0.061600
     19 C21         40.2010    71.0030    19.0990 c3         1 3QA       0.158600
     20 O22         40.0990    71.1220    17.6880 os         1 3QA      -0.438000
     21 C10         37.2460    73.7530    26.7660 c3         1 3QA       0.251000
     22 C9          38.1390    74.8580    27.2580 cd         1 3QA      -0.302000
     23 C23         39.1830    70.2060    17.0980 c3         1 3QA       0.157600
     24 C24         37.7470    70.6820    17.1520 c3         1 3QA       0.131600
     25 O25         37.6180    71.8500    16.3390 oh         1 3QA      -0.709000
     26 H1          39.8460    72.8800    22.3430 hc         1 3QA       0.045200
     27 H2          39.5020    74.6010    22.3570 hc         1 3QA       0.045200
     28 H3          37.4250    72.4210    22.8540 hc         1 3QA       0.078700
     29 H4          37.1130    75.3280    22.5650 h1         1 3QA       0.036700
     30 H5          34.9770    74.5820    22.4150 ho         1 3QA       0.439000
     31 H6          37.1560    75.6970    24.8440 h1         1 3QA       0.052200
     32 H7          35.5440    74.9570    24.8450 h1         1 3QA       0.052200
     33 H8          38.7000    72.2890    24.8760 h1         1 3QA       0.034200
     34 H9          39.1500    74.0030    24.7850 h1         1 3QA       0.034200
     35 H10         40.1860    73.9880    27.2890 h4         1 3QA       0.217000
     36 H11         40.9390    76.2260    28.0720 hn         1 3QA       0.352000
     37 H12         35.5650    78.5330    28.0570 h5         1 3QA       0.046100
     38 H14         37.9050    74.3330    20.4680 h1         1 3QA       0.070700
     39 H15         38.1310    72.5940    20.4920 h1         1 3QA       0.070700
     40 H16         41.1290    72.0580    20.7130 h1         1 3QA       0.074200
     41 H17         41.8410    72.3930    19.1380 h1         1 3QA       0.074200
     42 H18         39.2110    70.8910    19.5530 h1         1 3QA       0.024700
     43 H19         40.7820    70.1060    19.3530 h1         1 3QA       0.024700
     44 H20         36.2430    73.9060    27.1700 h1         1 3QA       0.064700
     45 H21         37.6060    72.7940    27.1470 h1         1 3QA       0.064700
     46 H22         39.6460    79.8670    29.2280 hn         1 3QA       0.482500
     47 H23         40.7240    78.5560    29.0370 hn         1 3QA       0.482500
     48 H24         39.2540    69.2240    17.5790 h1         1 3QA       0.052700
     49 H25         39.4880    70.0970    16.0550 h1         1 3QA       0.052700
     50 H26         37.4550    70.9000    18.1850 h1         1 3QA       0.022200
     51 H27         37.1020    69.8760    16.7820 h1         1 3QA       0.022200
     52 H28         36.7250    72.1990    16.4480 ho         1 3QA       0.499000
     53 N6          39.8550    78.9920    28.7730 nv         1 3QA      -1.068900
@<TRIPOS>BOND
     1     1     2 1   
     2     1    16 1   
     3     1    26 1   
     4     1    27 1   
     5     2     3 1   
     6     2     6 1   
     7     2    28 1   
     8     3     4 1   
     9     3     5 1   
    10     3    29 1   
    11     4    30 1   
    12     5    15 1   
    13     5    31 1   
    14     5    32 1   
    15     6    15 1   
    16     6    33 1   
    17     6    34 1   
    18     7     8 1   
    19     7    22 2   
    20     7    35 1   
    21     8     9 1   
    22     8    36 1   
    23     9    10 ar  
    24     9    14 ar  
    25    10    11 ar  
    26    10    53 1   
    27    11    12 ar  
    28    12    13 ar  
    29    12    37 1   
    30    13    14 ar  
    31    14    22 1   
    32    15    21 1   
    33    16    17 1   
    34    16    38 1   
    35    16    39 1   
    36    17    18 1   
    37    18    19 1   
    38    18    40 1   
    39    18    41 1   
    40    19    20 1   
    41    19    42 1   
    42    19    43 1   
    43    20    23 1   
    44    21    22 1   
    45    21    44 1   
    46    21    45 1   
    47    23    24 1   
    48    23    48 1   
    49    23    49 1   
    50    24    25 1   
    51    24    50 1   
    52    24    51 1   
    53    25    52 1   
    54    46    53 1   
    55    47    53 1   
@<TRIPOS>SUBSTRUCTURE
     1 3QA         1 TEMP              0 ****  ****    0 ROOT
