@<TRIPOS>MOLECULE
3QA
   53    55     1     0     0
SMALL
No Charge or Current Charge


@<TRIPOS>ATOM
      1 C5          39.3680    73.7670    21.7390 c3         1 3QA      -0.064400
      2 C4          38.1680    73.7620    22.7200 c5         1 3QA      -0.072700
      3 C3          37.3280    75.0810    22.7670 c5         1 3QA       0.164300
      4 O3          36.2970    75.0950    21.7710 oh         1 3QA      -0.661000
      5 C2          36.7660    75.0960    24.2370 c5         1 3QA       0.133800
      6 C1          38.5700    73.6110    24.2070 c5         1 3QA       0.161800
      7 C8          39.4030    74.6020    27.3200 cc         1 3QA      -0.132100
      8 N7          39.7620    75.7840    28.0060 na         1 3QA      -0.209700
      9 C7          38.6460    76.6010    28.1390 ca         1 3QA      -0.212200
     10 C6          38.4610    77.8580    28.7300 ca         1 3QA       0.381900
     11 N1          37.2460    78.4400    28.7140 nb         1 3QA      -0.264000
     12 C12         36.2450    77.7470    28.1060 ca         1 3QA       0.136900
     13 N3          36.3400    76.5300    27.5130 nb         1 3QA      -0.173000
     14 C11         37.5730    75.9980    27.5570 ca         1 3QA       0.130800
     15 N2          37.2560    73.8260    24.8390 n3         1 3QA      -0.712600
     16 C13         38.9770    73.8920    20.2490 c3         1 3QA       0.061600
     17 S6          40.4680    73.9200    19.1430 ss         1 3QA      -0.425000
     18 C20         41.1930    72.2190    19.4010 c3         1 3QA       0.061600
     19 C21         40.1910    71.0610    19.1780 c3         1 3QA       0.158600
     20 O22         39.6860    71.1330    17.8290 os         1 3QA      -0.438000
     21 C10         37.1900    73.7210    26.3140 c3         1 3QA       0.251000
     22 C9          38.0450    74.7380    27.0340 cd         1 3QA      -0.302000
     23 C23         38.8020    70.0590    17.4220 c3         1 3QA       0.157600
     24 C24         37.4450    70.1120    18.1890 c3         1 3QA       0.131600
     25 O25         36.7350    71.3400    17.9380 oh         1 3QA      -0.709000
     26 H1          39.9380    72.8410    21.8800 hc         1 3QA       0.045200
     27 H2          40.0480    74.5900    21.9930 hc         1 3QA       0.045200
     28 H3          37.5300    72.9160    22.4330 hc         1 3QA       0.078700
     29 H4          37.9870    75.9490    22.6310 h1         1 3QA       0.036700
     30 H5          35.7990    75.9330    21.8870 ho         1 3QA       0.439000
     31 H6          37.1620    75.9720    24.7690 h1         1 3QA       0.052200
     32 H7          35.6700    75.1590    24.2670 h1         1 3QA       0.052200
     33 H8          38.9810    72.6160    24.4260 h1         1 3QA       0.034200
     34 H9          39.3060    74.3700    24.5090 h1         1 3QA       0.034200
     35 H10         40.1080    73.8030    27.0990 h4         1 3QA       0.217000
     36 H11         40.6960    76.0040    28.3420 hn         1 3QA       0.352000
     37 H12         35.2630    78.2180    28.0940 h5         1 3QA       0.046100
     38 H14         38.4270    74.8290    20.0970 h1         1 3QA       0.070700
     39 H15         38.3140    73.0670    19.9600 h1         1 3QA       0.070700
     40 H16         41.5930    72.1520    20.4210 h1         1 3QA       0.074200
     41 H17         42.0370    72.0930    18.7110 h1         1 3QA       0.074200
     42 H18         39.3810    71.1310    19.9140 h1         1 3QA       0.024700
     43 H19         40.7110    70.1080    19.3410 h1         1 3QA       0.024700
     44 H20         36.1490    73.8360    26.6480 h1         1 3QA       0.064700
     45 H21         37.5080    72.7170    26.6280 h1         1 3QA       0.064700
     46 H22         39.2000    79.3570    29.9110 hn         1 3QA       0.482500
     47 H23         40.3040    78.0590    29.6220 hn         1 3QA       0.482500
     48 H24         39.2750    69.0840    17.5990 h1         1 3QA       0.052700
     49 H25         38.5970    70.1300    16.3460 h1         1 3QA       0.052700
     50 H26         37.6210    69.9820    19.2640 h1         1 3QA       0.022200
     51 H27         36.8360    69.2590    17.8600 h1         1 3QA       0.022200
     52 H28         35.8810    71.2850    18.4260 ho         1 3QA       0.499000
     53 N6          39.4570    78.5500    29.3470 nv         1 3QA      -1.068900
@<TRIPOS>BOND
     1     1     2 1   
     2     1    16 1   
     3     1    26 1   
     4     1    27 1   
     5     2     3 1   
     6     2     6 1   
     7     2    28 1   
     8     3     4 1   
     9     3     5 1   
    10     3    29 1   
    11     4    30 1   
    12     5    15 1   
    13     5    31 1   
    14     5    32 1   
    15     6    15 1   
    16     6    33 1   
    17     6    34 1   
    18     7     8 1   
    19     7    22 2   
    20     7    35 1   
    21     8     9 1   
    22     8    36 1   
    23     9    10 ar  
    24     9    14 ar  
    25    10    11 ar  
    26    10    53 1   
    27    11    12 ar  
    28    12    13 ar  
    29    12    37 1   
    30    13    14 ar  
    31    14    22 1   
    32    15    21 1   
    33    16    17 1   
    34    16    38 1   
    35    16    39 1   
    36    17    18 1   
    37    18    19 1   
    38    18    40 1   
    39    18    41 1   
    40    19    20 1   
    41    19    42 1   
    42    19    43 1   
    43    20    23 1   
    44    21    22 1   
    45    21    44 1   
    46    21    45 1   
    47    23    24 1   
    48    23    48 1   
    49    23    49 1   
    50    24    25 1   
    51    24    50 1   
    52    24    51 1   
    53    25    52 1   
    54    46    53 1   
    55    47    53 1   
@<TRIPOS>SUBSTRUCTURE
     1 3QA         1 TEMP              0 ****  ****    0 ROOT
