@<TRIPOS>MOLECULE
3QB
   61    62     1     0     0
SMALL
abcg2


@<TRIPOS>ATOM
      1 C4          -1.9420     0.0250    -0.1650 c6         1 3QB       0.157300
      2 C14          4.9820    -1.3120     0.1430 c5         1 3QB       0.168800
      3 C5          -4.2560     0.5280    -0.0900 c6         1 3QB       0.283300
      4 C6          -4.3160     3.1160     0.8320 c3         1 3QB       0.042900
      5 C11          2.7450    -0.7680     0.0090 c5         1 3QB       0.091500
      6 C7          -0.7020     0.3740    -0.9890 c3         1 3QB       0.083700
      7 C8          -0.5490     1.8890    -1.2400 c3         1 3QB       0.161300
      8 C9          -0.4400     2.7020     0.0360 c3         1 3QB      -0.096100
      9 C12          3.5050     0.5700     0.1730 c5         1 3QB      -0.074400
     10 C13          4.9890     0.2060    -0.0040 c5         1 3QB      -0.067700
     11 N1           0.4550    -0.1560    -0.3090 ns         1 3QB      -0.513900
     12 N2           3.7330    -1.6960    -0.4800 n3         1 3QB      -0.701600
     13 C3          -2.1700    -1.4750    -0.0290 c6         1 3QB       0.155300
     14 C18          8.2970     1.3820     1.7030 c3         1 3QB      -0.089100
     15 C16          5.9150     0.9340     0.9580 c3         1 3QB      -0.069400
     16 C15          3.3720    -3.0800    -0.3110 c3         1 3QB       0.159100
     17 O8           0.6250     2.1560    -1.9770 oh         1 3QB      -0.668000
     18 O5          -3.0460     0.6570    -0.7740 os         1 3QB      -0.425000
     19 O7          -2.2440    -2.0450    -1.3060 oh         1 3QB      -0.706000
     20 C2          -3.4530    -1.6960     0.7660 c6         1 3QB       0.136300
     21 O6          -3.6870    -3.0820     0.8080 oh         1 3QB      -0.667000
     22 C1          -4.6100    -0.9510     0.1160 c6         1 3QB       0.117300
     23 O4          -5.7330    -1.1450     0.9340 oh         1 3QB      -0.713000
     24 S1          -4.2940     1.4340     1.4940 ss         1 3QB      -0.463000
     25 H1          -1.8080     0.4140     0.8580 h1         1 3QB       0.056700
     26 H2           5.8260    -1.8020    -0.3480 h1         1 3QB       0.036700
     27 H3           5.0220    -1.5930     1.2130 h1         1 3QB       0.036700
     28 H4          -5.0040     0.9930    -0.7400 h2         1 3QB       0.090700
     29 H5          -3.5110     3.2800     0.1190 h1         1 3QB       0.064700
     30 H6          -5.2710     3.3370     0.3570 h1         1 3QB       0.064700
     31 H7          -4.1820     3.8000     1.6670 h1         1 3QB       0.064700
     32 H8           2.3680    -1.0840     1.0000 h1         1 3QB       0.026700
     33 H9          -0.7750    -0.1340    -1.9540 h1         1 3QB       0.107700
     34 H10         -1.4350     2.2210    -1.7940 h1         1 3QB       0.050700
     35 H11          0.4450     2.4270     0.6130 hc         1 3QB       0.041700
     36 H12         -0.3580     3.7640    -0.1970 hc         1 3QB       0.041700
     37 H13         -1.3130     2.5810     0.6770 hc         1 3QB       0.041700
     38 H14          3.1780     1.3190    -0.5490 hc         1 3QB       0.055200
     39 H15          3.3170     0.9830     1.1660 hc         1 3QB       0.055200
     40 H16          5.2910     0.4460    -1.0280 hc         1 3QB       0.069700
     41 H17          0.5310     0.0370     0.6770 hn         1 3QB       0.303500
     42 H19         -1.3350    -1.8930     0.5530 h1         1 3QB       0.058700
     43 H20          8.1850     2.4550     1.5360 hc         1 3QB       0.031700
     44 H21          8.0660     1.1880     2.7520 hc         1 3QB       0.031700
     45 H22          9.3470     1.1320     1.5470 hc         1 3QB       0.031700
     46 H23          7.6780     0.7560    -0.2610 hc         1 3QB       0.038700
     47 H24          7.5370    -0.4850     0.9620 hc         1 3QB       0.038700
     48 H25          5.7860     2.0140     0.8290 hc         1 3QB       0.038700
     49 H26          5.6100     0.7150     1.9880 hc         1 3QB       0.038700
     50 H27          2.4590    -3.3050    -0.8640 h1         1 3QB       0.033033
     51 H28          4.1600    -3.7240    -0.7030 h1         1 3QB       0.033033
     52 H29          3.2090    -3.3590     0.7420 h1         1 3QB       0.033033
     53 H30          0.6840     1.5460    -2.7190 ho         1 3QB       0.461000
     54 H31         -2.5170    -2.9620    -1.2030 ho         1 3QB       0.524000
     55 H32         -3.3000    -1.2930     1.7790 h1         1 3QB       0.060700
     56 H33         -4.5510    -3.2320     1.2000 ho         1 3QB       0.470000
     57 H34         -4.7690    -1.3720    -0.8870 h1         1 3QB       0.068700
     58 H35         -6.4970    -0.7150     0.5420 ho         1 3QB       0.517000
     59 C10          1.5670    -0.6030    -0.9390 c          1 3QB       0.617100
     60 C17          7.3880     0.5830     0.7800 c3         1 3QB      -0.075400
     61 O9           1.6410    -0.8090    -2.1310 o          1 3QB      -0.566100
@<TRIPOS>BOND
     1     1     6 1   
     2     1    13 1   
     3     1    18 1   
     4     1    25 1   
     5     2    10 1   
     6     2    12 1   
     7     2    26 1   
     8     2    27 1   
     9     3    18 1   
    10     3    22 1   
    11     3    24 1   
    12     3    28 1   
    13     4    24 1   
    14     4    29 1   
    15     4    30 1   
    16     4    31 1   
    17     5     9 1   
    18     5    12 1   
    19     5    32 1   
    20     5    59 1   
    21     6     7 1   
    22     6    11 1   
    23     6    33 1   
    24     7     8 1   
    25     7    17 1   
    26     7    34 1   
    27     8    35 1   
    28     8    36 1   
    29     8    37 1   
    30     9    10 1   
    31     9    38 1   
    32     9    39 1   
    33    10    15 1   
    34    10    40 1   
    35    11    41 1   
    36    11    59 1   
    37    12    16 1   
    38    13    19 1   
    39    13    20 1   
    40    13    42 1   
    41    14    43 1   
    42    14    44 1   
    43    14    45 1   
    44    14    60 1   
    45    15    48 1   
    46    15    49 1   
    47    15    60 1   
    48    16    50 1   
    49    16    51 1   
    50    16    52 1   
    51    17    53 1   
    52    19    54 1   
    53    20    21 1   
    54    20    22 1   
    55    20    55 1   
    56    21    56 1   
    57    22    23 1   
    58    22    57 1   
    59    23    58 1   
    60    46    60 1   
    61    47    60 1   
    62    59    61 2   
@<TRIPOS>SUBSTRUCTURE
     1 3QB         1 TEMP              0 ****  ****    0 ROOT
