@<TRIPOS>MOLECULE
3QB
   61    62     1     0     0
SMALL
No Charge or Current Charge


@<TRIPOS>ATOM
      1 C4          -2.0400     0.1450    -0.1620 c6         1 3QB       0.157300
      2 C14          4.7420    -1.2470     0.6060 c5         1 3QB       0.168800
      3 C5          -4.4820     0.0640    -0.2770 c6         1 3QB       0.283300
      4 C6          -4.8860     2.7520     0.5520 c3         1 3QB       0.042900
      5 C11          2.7860    -0.0280     0.1830 c5         1 3QB       0.091500
      6 C7          -0.8230     0.7890    -0.9090 c3         1 3QB       0.083700
      7 C8          -0.9740     2.3270    -1.1590 c3         1 3QB       0.161300
      8 C9          -0.8670     3.1850     0.1230 c3         1 3QB      -0.096100
      9 C12          3.9690     1.0010     0.2170 c5         1 3QB      -0.074400
     10 C13          5.2480     0.1170     0.0740 c5         1 3QB      -0.067700
     11 N1           0.4540     0.4610    -0.2330 ns         1 3QB      -0.513900
     12 N2           3.4610    -1.3280    -0.1210 n3         1 3QB      -0.701600
     13 C3          -1.9170    -1.4080     0.0080 c6         1 3QB       0.155300
     14 C18          9.0100     0.4440     1.3080 c3         1 3QB      -0.089100
     15 C16          6.5010     0.6880     0.7840 c3         1 3QB      -0.069400
     16 C15          2.6540    -2.5410     0.1250 c3         1 3QB       0.159100
     17 O8           0.0170     2.7790    -2.0930 oh         1 3QB      -0.668000
     18 O5          -3.2450     0.4760    -0.9020 os         1 3QB      -0.425000
     19 O7          -1.7410    -2.0910    -1.2500 oh         1 3QB      -0.706000
     20 C2          -3.2080    -1.9410     0.6990 c6         1 3QB       0.136300
     21 O6          -3.1740    -3.3780     0.7880 oh         1 3QB      -0.667000
     22 C1          -4.4860    -1.4930    -0.0750 c6         1 3QB       0.117300
     23 O4          -5.6710    -1.9800     0.6060 oh         1 3QB      -0.713000
     24 S1          -4.7430     1.0540     1.2750 ss         1 3QB      -0.463000
     25 H1          -2.0930     0.6020     0.8360 h1         1 3QB       0.056700
     26 H2           5.4200    -2.0720     0.3470 h1         1 3QB       0.036700
     27 H3           4.5980    -1.2390     1.6960 h1         1 3QB       0.036700
     28 H4          -5.3160     0.3260    -0.9450 h2         1 3QB       0.090700
     29 H5          -3.9740     3.0030    -0.0040 h1         1 3QB       0.064700
     30 H6          -5.7450     2.7970    -0.1300 h1         1 3QB       0.064700
     31 H7          -5.0280     3.4870     1.3550 h1         1 3QB       0.064700
     32 H8           2.3310    -0.0740     1.1830 h1         1 3QB       0.026700
     33 H9          -0.8050     0.3090    -1.8970 h1         1 3QB       0.107700
     34 H10         -1.9680     2.5070    -1.5910 h1         1 3QB       0.050700
     35 H11          0.1190     3.0810     0.5900 hc         1 3QB       0.041700
     36 H12         -1.0220     4.2440    -0.1130 hc         1 3QB       0.041700
     37 H13         -1.6280     2.8920     0.8550 hc         1 3QB       0.041700
     38 H14          3.9140     1.7470    -0.5830 hc         1 3QB       0.055200
     39 H15          3.9600     1.5550     1.1630 hc         1 3QB       0.055200
     40 H16          5.5080     0.0180    -0.9870 hc         1 3QB       0.069700
     41 H17          0.4340     0.2080     0.7480 hn         1 3QB       0.303500
     42 H19         -1.0650    -1.6220     0.6710 h1         1 3QB       0.058700
     43 H20          9.2370     1.4300     0.8850 hc         1 3QB       0.031700
     44 H21          8.8380     0.5610     2.3850 hc         1 3QB       0.031700
     45 H22          9.8860    -0.2000     1.1680 hc         1 3QB       0.031700
     46 H23          7.9900    -0.3070    -0.4440 hc         1 3QB       0.038700
     47 H24          7.6010    -1.1700     1.0440 hc         1 3QB       0.038700
     48 H25          6.7070     1.6930     0.3940 hc         1 3QB       0.038700
     49 H26          6.2920     0.8110     1.8550 hc         1 3QB       0.038700
     50 H27          1.7340    -2.5220    -0.4750 h1         1 3QB       0.033033
     51 H28          3.2190    -3.4420    -0.1450 h1         1 3QB       0.033033
     52 H29          2.3730    -2.6150     1.1850 h1         1 3QB       0.033033
     53 H30          0.7110     2.0710    -2.1300 ho         1 3QB       0.461000
     54 H31         -2.0130    -3.0220    -1.0600 ho         1 3QB       0.524000
     55 H32         -3.2530    -1.5090     1.7110 h1         1 3QB       0.060700
     56 H33         -4.1010    -3.6350     1.0090 ho         1 3QB       0.470000
     57 H34         -4.4410    -1.9370    -1.0810 h1         1 3QB       0.068700
     58 H35         -6.4590    -1.6330     0.1260 ho         1 3QB       0.517000
     59 C10          1.6870     0.4280    -0.8500 c          1 3QB       0.617100
     60 C17          7.7750    -0.1720     0.6230 c3         1 3QB      -0.075400
     61 O9           1.8390     0.7490    -2.0230 o          1 3QB      -0.566100
@<TRIPOS>BOND
     1     1     6 1   
     2     1    13 1   
     3     1    18 1   
     4     1    25 1   
     5     2    10 1   
     6     2    12 1   
     7     2    26 1   
     8     2    27 1   
     9     3    18 1   
    10     3    22 1   
    11     3    24 1   
    12     3    28 1   
    13     4    24 1   
    14     4    29 1   
    15     4    30 1   
    16     4    31 1   
    17     5     9 1   
    18     5    12 1   
    19     5    32 1   
    20     5    59 1   
    21     6     7 1   
    22     6    11 1   
    23     6    33 1   
    24     7     8 1   
    25     7    17 1   
    26     7    34 1   
    27     8    35 1   
    28     8    36 1   
    29     8    37 1   
    30     9    10 1   
    31     9    38 1   
    32     9    39 1   
    33    10    15 1   
    34    10    40 1   
    35    11    41 1   
    36    11    59 1   
    37    12    16 1   
    38    13    19 1   
    39    13    20 1   
    40    13    42 1   
    41    14    43 1   
    42    14    44 1   
    43    14    45 1   
    44    14    60 1   
    45    15    48 1   
    46    15    49 1   
    47    15    60 1   
    48    16    50 1   
    49    16    51 1   
    50    16    52 1   
    51    17    53 1   
    52    19    54 1   
    53    20    21 1   
    54    20    22 1   
    55    20    55 1   
    56    21    56 1   
    57    22    23 1   
    58    22    57 1   
    59    23    58 1   
    60    46    60 1   
    61    47    60 1   
    62    59    61 2   
@<TRIPOS>SUBSTRUCTURE
     1 3QB         1 TEMP              0 ****  ****    0 ROOT
