@<TRIPOS>MOLECULE
3QC
   48    50     1     0     0
SMALL
No Charge or Current Charge


@<TRIPOS>ATOM
      1 C1           1.0240    -1.3440     0.1840 ca         1 3QC      -0.105300
      2 C2           2.0450    -0.2790     0.6450 c6         1 3QC       0.140300
      3 C11         -1.1730    -1.9360    -0.6970 ca         1 3QC      -0.099000
      4 C12         -0.7860    -3.2780    -0.7750 ca         1 3QC      -0.105000
      5 C13          0.4980    -3.6790    -0.3710 ca         1 3QC      -0.074300
      6 C14          1.4150    -2.7110     0.1190 ca         1 3QC      -0.069300
      7 C19         -3.0970     1.3450    -0.6240 ca         1 3QC      -0.199000
      8 C20         -4.4500     1.4890    -0.2780 ca         1 3QC       0.138100
      9 C21         -4.9290     0.9600     0.9300 ca         1 3QC      -0.146000
     10 C22         -4.0540     0.2840     1.7960 ca         1 3QC      -0.076000
     11 O28         -5.3040     2.1430    -1.1130 oh         1 3QC      -0.535100
     12 C33          2.8310    -3.1190     0.5540 c3         1 3QC      -0.050800
     13 N3           1.5900     1.1300     0.5250 n          1 3QC      -0.405800
     14 C4           0.1560     1.3080     0.8370 c6         1 3QC       0.102000
     15 C5          -0.7300     0.5080    -0.1380 c6         1 3QC      -0.006100
     16 C6          -0.2840    -0.9630    -0.2080 ca         1 3QC      -0.062300
     17 C17         -2.2100     0.6690     0.2390 ca         1 3QC      -0.035300
     18 C23         -2.6990     0.1390     1.4510 ca         1 3QC      -0.141000
     19 C29          0.8650    -5.1570    -0.4940 c3         1 3QC      -0.045800
     20 C38          2.3540     2.1630    -0.0700 c          1 3QC       0.650100
     21 N39          3.7710     2.1100    -0.0690 n          1 3QC      -0.417800
     22 C40          4.5350     3.0790    -0.8850 c3         1 3QC       0.090300
     23 C44          4.5450     1.3870     0.9690 c3         1 3QC       0.090300
     24 O48          1.7860     3.1160    -0.5860 o          1 3QC      -0.628100
     25 H21A         2.9410    -0.4190     0.0270 h1         1 3QC       0.060200
     26 H22A         2.3190    -0.4710     1.6920 h1         1 3QC       0.060200
     27 H11         -2.1720    -1.6560    -1.0240 ha         1 3QC       0.120000
     28 H12         -1.4940    -4.0110    -1.1560 ha         1 3QC       0.112000
     29 H21         -5.9770     1.0730     1.1950 ha         1 3QC       0.128000
     30 H22         -4.4240    -0.1290     2.7320 ha         1 3QC       0.114000
     31 H28         -4.7990     2.4410    -1.9000 ho         1 3QC       0.465000
     32 H331         3.5650    -2.8580    -0.2170 hc         1 3QC       0.040700
     33 H332         3.1290    -2.6190     1.4830 hc         1 3QC       0.040700
     34 H333         2.9320    -4.1910     0.7520 hc         1 3QC       0.040700
     35 H41         -0.0230     0.9620     1.8640 h1         1 3QC       0.064700
     36 H42         -0.1230     2.3700     0.8060 h1         1 3QC       0.064700
     37 H5          -0.5740     0.9360    -1.1380 hc         1 3QC       0.084700
     38 H23         -2.0300    -0.3920     2.1240 ha         1 3QC       0.119000
     39 H291         1.7820    -5.2910    -1.0810 hc         1 3QC       0.041033
     40 H292         1.0220    -5.6080     0.4930 hc         1 3QC       0.041033
     41 H293         0.0770    -5.7340    -0.9930 hc         1 3QC       0.041033
     42 H401         5.5840     2.7630    -0.9670 h1         1 3QC       0.039367
     43 H402         4.1090     3.1360    -1.8950 h1         1 3QC       0.039367
     44 H403         4.4940     4.0710    -0.4180 h1         1 3QC       0.039367
     45 H441         3.9400     1.2500     1.8740 h1         1 3QC       0.039367
     46 H442         4.8690     0.4120     0.5860 h1         1 3QC       0.039367
     47 H443         5.4350     1.9670     1.2440 h1         1 3QC       0.039367
     48 H19         -2.7300     1.7560    -1.5620 ha         1 3QC       0.117000
@<TRIPOS>BOND
     1     1     2 1   
     2     1     6 ar  
     3     1    16 ar  
     4     2    13 1   
     5     2    25 1   
     6     2    26 1   
     7     3     4 ar  
     8     3    16 ar  
     9     3    27 1   
    10     4     5 ar  
    11     4    28 1   
    12     5     6 ar  
    13     5    19 1   
    14     6    12 1   
    15     7     8 ar  
    16     7    17 ar  
    17     7    48 1   
    18     8     9 ar  
    19     8    11 1   
    20     9    10 ar  
    21     9    29 1   
    22    10    18 ar  
    23    10    30 1   
    24    11    31 1   
    25    12    32 1   
    26    12    33 1   
    27    12    34 1   
    28    13    14 1   
    29    13    20 1   
    30    14    15 1   
    31    14    35 1   
    32    14    36 1   
    33    15    16 1   
    34    15    17 1   
    35    15    37 1   
    36    17    18 ar  
    37    18    38 1   
    38    19    39 1   
    39    19    40 1   
    40    19    41 1   
    41    20    21 1   
    42    20    24 2   
    43    21    22 1   
    44    21    23 1   
    45    22    42 1   
    46    22    43 1   
    47    22    44 1   
    48    23    45 1   
    49    23    46 1   
    50    23    47 1   
@<TRIPOS>SUBSTRUCTURE
     1 3QC         1 TEMP              0 ****  ****    0 ROOT
