@<TRIPOS>MOLECULE
3QC
   48    50     1     0     0
SMALL
abcg2


@<TRIPOS>ATOM
      1 C1           1.0220    -1.2620     0.3020 ca         1 3QC      -0.105300
      2 C2           1.9520    -0.2770     0.9820 c6         1 3QC       0.140300
      3 C11         -0.9920    -1.7710    -0.8950 ca         1 3QC      -0.099000
      4 C12         -0.5740    -3.0790    -1.0460 ca         1 3QC      -0.105000
      5 C13          0.6320    -3.5150    -0.5040 ca         1 3QC      -0.074300
      6 C14          1.4300    -2.6000     0.1890 ca         1 3QC      -0.069300
      7 C19         -3.0050     1.4430    -0.5000 ca         1 3QC      -0.199000
      8 C20         -4.3540     1.5650    -0.1700 ca         1 3QC       0.138100
      9 C21         -4.8510     0.9190     0.9580 ca         1 3QC      -0.146000
     10 C22         -3.9920     0.1570     1.7360 ca         1 3QC      -0.076000
     11 O28         -5.2130     2.2930    -0.9130 oh         1 3QC      -0.535100
     12 C33          2.7430    -3.0460     0.7750 c3         1 3QC      -0.050800
     13 N3           1.5670     1.1020     0.7580 n          1 3QC      -0.405800
     14 C4           0.1550     1.3250     0.9670 c6         1 3QC       0.102000
     15 C5          -0.6840     0.5840    -0.0750 c6         1 3QC      -0.006100
     16 C6          -0.2050    -0.8460    -0.2160 ca         1 3QC      -0.062300
     17 C17         -2.1480     0.6760     0.2790 ca         1 3QC      -0.035300
     18 C23         -2.6510     0.0280     1.4060 ca         1 3QC      -0.141000
     19 C29          1.0560    -4.9450    -0.6880 c3         1 3QC      -0.045800
     20 C38          2.2250     1.9170    -0.1350 c          1 3QC       0.650100
     21 N39          3.5850     1.8110    -0.1620 n          1 3QC      -0.417800
     22 C40          4.2960     2.4830    -1.2270 c3         1 3QC       0.090300
     23 C44          4.3830     1.5460     1.0200 c3         1 3QC       0.090300
     24 O48          1.6200     2.7020    -0.8560 o          1 3QC      -0.628100
     25 H21A         2.9610    -0.4350     0.6050 h1         1 3QC       0.060200
     26 H22A         1.9920    -0.4770     2.0590 h1         1 3QC       0.060200
     27 H11         -1.9440    -1.4640    -1.3120 ha         1 3QC       0.120000
     28 H12         -1.1950    -3.7800    -1.5920 ha         1 3QC       0.112000
     29 H21         -5.8980     1.0120     1.2170 ha         1 3QC       0.128000
     30 H22         -4.3800    -0.3470     2.6120 ha         1 3QC       0.114000
     31 H28         -4.7600     2.6730    -1.6730 ho         1 3QC       0.465000
     32 H331         3.5590    -2.9210     0.0570 hc         1 3QC       0.040700
     33 H332         3.0150    -2.4900     1.6710 hc         1 3QC       0.040700
     34 H333         2.7230    -4.0980     1.0520 hc         1 3QC       0.040700
     35 H41         -0.0920     0.9620     1.9690 h1         1 3QC       0.064700
     36 H42         -0.0670     2.3900     0.9500 h1         1 3QC       0.064700
     37 H5          -0.5360     1.0910    -1.0340 hc         1 3QC       0.084700
     38 H23         -2.0010    -0.5860     2.0170 ha         1 3QC       0.119000
     39 H291         2.0410    -5.0220    -1.1520 hc         1 3QC       0.041033
     40 H292         1.1100    -5.4820     0.2620 hc         1 3QC       0.041033
     41 H293         0.3500    -5.4780    -1.3240 hc         1 3QC       0.041033
     42 H401         5.2530     1.9850    -1.3810 h1         1 3QC       0.039367
     43 H402         3.7390     2.4340    -2.1590 h1         1 3QC       0.039367
     44 H403         4.4960     3.5340    -0.9960 h1         1 3QC       0.039367
     45 H441         3.7560     1.3870     1.8930 h1         1 3QC       0.039367
     46 H442         5.0260     0.6730     0.8900 h1         1 3QC       0.039367
     47 H443         5.0240     2.4060     1.2300 h1         1 3QC       0.039367
     48 H19         -2.6190     1.9440    -1.3830 ha         1 3QC       0.117000
@<TRIPOS>BOND
     1     1     2 1   
     2     1     6 ar  
     3     1    16 ar  
     4     2    13 1   
     5     2    25 1   
     6     2    26 1   
     7     3     4 ar  
     8     3    16 ar  
     9     3    27 1   
    10     4     5 ar  
    11     4    28 1   
    12     5     6 ar  
    13     5    19 1   
    14     6    12 1   
    15     7     8 ar  
    16     7    17 ar  
    17     7    48 1   
    18     8     9 ar  
    19     8    11 1   
    20     9    10 ar  
    21     9    29 1   
    22    10    18 ar  
    23    10    30 1   
    24    11    31 1   
    25    12    32 1   
    26    12    33 1   
    27    12    34 1   
    28    13    14 1   
    29    13    20 1   
    30    14    15 1   
    31    14    35 1   
    32    14    36 1   
    33    15    16 1   
    34    15    17 1   
    35    15    37 1   
    36    17    18 ar  
    37    18    38 1   
    38    19    39 1   
    39    19    40 1   
    40    19    41 1   
    41    20    21 1   
    42    20    24 2   
    43    21    22 1   
    44    21    23 1   
    45    22    42 1   
    46    22    43 1   
    47    22    44 1   
    48    23    45 1   
    49    23    46 1   
    50    23    47 1   
@<TRIPOS>SUBSTRUCTURE
     1 3QC         1 TEMP              0 ****  ****    0 ROOT
