@<TRIPOS>MOLECULE
3QH
   43    45     1     0     0
SMALL
No Charge or Current Charge


@<TRIPOS>ATOM
      1 C1          43.9030    12.5380    28.9730 ca         1 3QH      -0.051000
      2 C2          44.6630    12.2720    27.8220 ca         1 3QH      -0.048000
      3 C3          45.9720    12.7710    27.7200 ca         1 3QH      -0.112000
      4 C4          44.4570    13.3140    30.0070 ca         1 3QH      -0.028000
      5 C5          45.7690    13.8390    29.8930 ca         1 3QH      -0.159000
      6 C6          46.5380    13.5450    28.7480 ca         1 3QH       0.335000
      7 N7          47.8050    13.9790    28.6130 nb         1 3QH      -0.720000
      8 C8          48.3600    14.6980    29.6060 ca         1 3QH       0.432900
      9 C9          47.6850    15.0480    30.7770 ca         1 3QH      -0.365600
     10 C10         46.3520    14.6350    30.9030 ca         1 3QH       0.468000
     11 C11         42.5710    12.0150    29.0960 cg         1 3QH       0.329000
     12 N12         41.4850    11.5980    29.2020 n1         1 3QH      -0.459000
     13 C13         48.4000    15.8200    31.8390 c          1 3QH       0.639700
     14 N14         49.5710    16.4070    31.5290 nt         1 3QH      -0.594000
     15 O15         47.9910    15.9120    32.9830 o          1 3QH      -0.663100
     16 C16         43.7530    15.9490    33.2820 ca         1 3QH      -0.127300
     17 C17         44.5070    15.9890    31.9540 c3         1 3QH       0.287800
     18 C18         42.4420    15.4350    33.3290 ca         1 3QH      -0.095500
     19 C19         44.3480    16.4120    34.4760 ca         1 3QH      -0.095500
     20 C20         45.0260    17.3980    31.6060 c3         1 3QH      -0.105100
     21 N21         45.6220    15.0400    32.0120 nu         1 3QH      -0.953200
     22 C22         41.7350    15.3900    34.5430 ca         1 3QH      -0.107500
     23 C23         43.6400    16.3660    35.6890 ca         1 3QH      -0.107500
     24 C24         42.3300    15.8550    35.7300 ca         1 3QH      -0.066300
     25 C25         41.5640    15.8090    37.0430 c3         1 3QH      -0.048800
     26 H2          44.2490    11.6730    27.0130 ha         1 3QH       0.129000
     27 H4          43.8650    13.4870    30.9030 ha         1 3QH       0.135000
     28 H3          46.5610    12.5500    26.8340 ha         1 3QH       0.138000
     29 H8          49.3970    14.9850    29.4360 h4         1 3QH       0.007100
     30 H21         46.2870    15.2980    32.7520 hn         1 3QH       0.542000
     31 H141        50.0620    16.9170    32.2470 hn         1 3QH       0.318500
     32 H142        49.9400    16.3610    30.5930 hn         1 3QH       0.318500
     33 H17         43.8090    15.6990    31.1570 h1         1 3QH       0.063700
     34 H18         41.9650    15.0690    32.4220 ha         1 3QH       0.118000
     35 H19         45.3630    16.8050    34.4700 ha         1 3QH       0.118000
     36 H201        45.4850    17.4050    30.6100 hc         1 3QH       0.052700
     37 H202        44.1960    18.1140    31.5990 hc         1 3QH       0.052700
     38 H203        45.7710    17.7440    32.3300 hc         1 3QH       0.052700
     39 H22         40.7220    14.9930    34.5600 ha         1 3QH       0.116500
     40 H23         44.1120    16.7290    36.6000 ha         1 3QH       0.116500
     41 H251        40.8520    14.9750    37.0620 hc         1 3QH       0.045700
     42 H252        42.2400    15.6830    37.8970 hc         1 3QH       0.045700
     43 H253        40.9980    16.7350    37.1970 hc         1 3QH       0.045700
@<TRIPOS>BOND
     1     1     2 ar  
     2     1     4 ar  
     3     1    11 1   
     4     2     3 ar  
     5     2    26 1   
     6     3     6 ar  
     7     3    28 1   
     8     4     5 ar  
     9     4    27 1   
    10     5     6 ar  
    11     5    10 ar  
    12     6     7 ar  
    13     7     8 ar  
    14     8     9 ar  
    15     8    29 1   
    16     9    10 ar  
    17     9    13 1   
    18    10    21 1   
    19    11    12 3   
    20    13    14 1   
    21    13    15 2   
    22    14    31 1   
    23    14    32 1   
    24    16    17 1   
    25    16    18 ar  
    26    16    19 ar  
    27    17    20 1   
    28    17    21 1   
    29    17    33 1   
    30    18    22 ar  
    31    18    34 1   
    32    19    23 ar  
    33    19    35 1   
    34    20    36 1   
    35    20    37 1   
    36    20    38 1   
    37    21    30 1   
    38    22    24 ar  
    39    22    39 1   
    40    23    24 ar  
    41    23    40 1   
    42    24    25 1   
    43    25    41 1   
    44    25    42 1   
    45    25    43 1   
@<TRIPOS>SUBSTRUCTURE
     1 3QH         1 TEMP              0 ****  ****    0 ROOT
