@<TRIPOS>MOLECULE
3QH
   43    45     1     0     0
SMALL
abcg2


@<TRIPOS>ATOM
      1 C1          43.6110    12.9760    29.9550 ca         1 3QH      -0.051000
      2 C2          44.2560    12.0680    29.0840 ca         1 3QH      -0.048000
      3 C3          45.6030    12.1840    28.8900 ca         1 3QH      -0.112000
      4 C4          44.3190    13.9950    30.5660 ca         1 3QH      -0.028000
      5 C5          45.6970    14.1640    30.3440 ca         1 3QH      -0.159000
      6 C6          46.3590    13.1990    29.5240 ca         1 3QH       0.335000
      7 N7          47.7050    13.1740    29.3380 nb         1 3QH      -0.720000
      8 C8          48.4070    14.1000    29.9520 ca         1 3QH       0.432900
      9 C9          47.9000    15.1450    30.7380 ca         1 3QH      -0.365600
     10 C10         46.4900    15.2240    30.9400 ca         1 3QH       0.468000
     11 C11         42.2170    12.8410    30.2210 cg         1 3QH       0.329000
     12 N12         41.0880    12.7300    30.4320 n1         1 3QH      -0.459000
     13 C13         48.8250    16.1550    31.3110 c          1 3QH       0.639700
     14 N14         50.0890    16.2030    30.8430 nt         1 3QH      -0.594000
     15 O15         48.4740    16.9440    32.2070 o          1 3QH      -0.663100
     16 C16         43.8580    16.1600    32.9250 ca         1 3QH      -0.127300
     17 C17         44.6390    16.7760    31.7740 c3         1 3QH       0.287800
     18 C18         42.4650    16.2460    32.9320 ca         1 3QH      -0.095500
     19 C19         44.4880    15.5240    33.9880 ca         1 3QH      -0.095500
     20 C20         44.7520    18.2940    31.9440 c3         1 3QH      -0.105100
     21 N21         45.9920    16.2470    31.6460 nu         1 3QH      -0.953200
     22 C22         41.7260    15.7070    33.9740 ca         1 3QH      -0.107500
     23 C23         43.7440    14.9850    35.0340 ca         1 3QH      -0.107500
     24 C24         42.3520    15.0620    35.0440 ca         1 3QH      -0.066300
     25 C25         41.5440    14.4460    36.1540 c3         1 3QH      -0.048800
     26 H2          43.6880    11.2850    28.6020 ha         1 3QH       0.129000
     27 H4          43.7840    14.6290    31.2480 ha         1 3QH       0.135000
     28 H3          46.1350    11.4870    28.2560 ha         1 3QH       0.138000
     29 H8          49.4800    14.0150    29.8210 h4         1 3QH       0.007100
     30 H21         46.7290    16.8140    32.0650 hn         1 3QH       0.542000
     31 H141        50.7040    16.9020    31.2290 hn         1 3QH       0.318500
     32 H142        50.4040    15.7010    30.0320 hn         1 3QH       0.318500
     33 H17         44.1010    16.5870    30.8430 h1         1 3QH       0.063700
     34 H18         41.9550    16.7320    32.1070 ha         1 3QH       0.118000
     35 H19         45.5670    15.4380    33.9990 ha         1 3QH       0.118000
     36 H201        45.2520    18.7380    31.0820 hc         1 3QH       0.052700
     37 H202        43.7580    18.7320    32.0390 hc         1 3QH       0.052700
     38 H203        45.3190    18.5320    32.8470 hc         1 3QH       0.052700
     39 H22         40.6440    15.7820    33.9560 ha         1 3QH       0.116500
     40 H23         44.2560    14.4910    35.8520 ha         1 3QH       0.116500
     41 H251        41.0890    13.5060    35.8280 hc         1 3QH       0.045700
     42 H252        42.1670    14.2290    37.0230 hc         1 3QH       0.045700
     43 H253        40.7320    15.1060    36.4660 hc         1 3QH       0.045700
@<TRIPOS>BOND
     1     1     2 ar  
     2     1     4 ar  
     3     1    11 1   
     4     2     3 ar  
     5     2    26 1   
     6     3     6 ar  
     7     3    28 1   
     8     4     5 ar  
     9     4    27 1   
    10     5     6 ar  
    11     5    10 ar  
    12     6     7 ar  
    13     7     8 ar  
    14     8     9 ar  
    15     8    29 1   
    16     9    10 ar  
    17     9    13 1   
    18    10    21 1   
    19    11    12 3   
    20    13    14 1   
    21    13    15 2   
    22    14    31 1   
    23    14    32 1   
    24    16    17 1   
    25    16    18 ar  
    26    16    19 ar  
    27    17    20 1   
    28    17    21 1   
    29    17    33 1   
    30    18    22 ar  
    31    18    34 1   
    32    19    23 ar  
    33    19    35 1   
    34    20    36 1   
    35    20    37 1   
    36    20    38 1   
    37    21    30 1   
    38    22    24 ar  
    39    22    39 1   
    40    23    24 ar  
    41    23    40 1   
    42    24    25 1   
    43    25    41 1   
    44    25    42 1   
    45    25    43 1   
@<TRIPOS>SUBSTRUCTURE
     1 3QH         1 TEMP              0 ****  ****    0 ROOT
