@<TRIPOS>MOLECULE
3QI
   33    35     1     0     0
SMALL
bcc


@<TRIPOS>ATOM
      1 CAA          4.9430     1.1290    -1.9210 c3         1 3QI      -0.053800
      2 CAC         -2.8930     2.8110     0.1260 c3         1 3QI      -0.031800
      3 OAD          0.0970     2.0920     0.2290 o          1 3QI      -0.590500
      4 SAE          1.5350    -2.5930    -0.0330 sh         1 3QI      -0.232000
      5 CAF          3.7390     0.5290     1.6190 ca         1 3QI       0.417200
      6 CAG          4.5770     0.8370     0.5580 ca         1 3QI      -0.239300
      7 CAH          2.7290     0.5110    -0.8940 ca         1 3QI      -0.212300
      8 NAI          2.4560     0.2260     1.4670 nb         1 3QI      -0.649000
      9 NAJ         -0.9980    -1.8140    -0.0990 nc         1 3QI      -0.627100
     10 SAK         -3.6050    -1.1520    -0.1790 ss         1 3QI      -0.038800
     11 CAL          4.0760     0.8310    -0.7390 ca         1 3QI      -0.030300
     12 CAM         -3.9870     0.5430    -0.0890 cc         1 3QI      -0.076400
     13 CAN         -2.8730     1.3200     0.0170 cd         1 3QI      -0.022300
     14 CAO          1.9880     0.2230     0.2360 ca         1 3QI       0.501200
     15 CAP          0.2280    -1.4240    -0.0100 cd         1 3QI       0.552800
     16 CAQ         -0.3140     0.9540     0.1250 c          1 3QI       0.753100
     17 CAR         -1.9230    -0.8310    -0.0770 cc         1 3QI       0.226300
     18 CAS         -1.6800     0.5240     0.0220 cd         1 3QI      -0.239600
     19 NAT          0.6030    -0.1160     0.0970 n          1 3QI      -0.394800
     20 HAA          5.3030     0.2000    -2.3670 hc         1 3QI       0.051367
     21 HAAA         4.3940     1.6690    -2.6910 hc         1 3QI       0.051367
     22 HAAB         5.8130     1.7170    -1.6360 hc         1 3QI       0.051367
     23 HAB         -6.0600     0.1980    -0.5410 hc         1 3QI       0.046700
     24 HABA        -5.7890     1.1590     0.9050 hc         1 3QI       0.046700
     25 HABB        -5.5550     1.8720    -0.6880 hc         1 3QI       0.046700
     26 HAC         -2.4620     3.1420     1.0710 hc         1 3QI       0.050700
     27 HACA        -2.3150     3.2760    -0.6720 hc         1 3QI       0.050700
     28 HACB        -3.9100     3.1960     0.0740 hc         1 3QI       0.050700
     29 HSAE         0.7240    -3.6470    -0.1760 hs         1 3QI       0.233800
     30 HAF          4.1190     0.5310     2.6330 h4         1 3QI       0.027100
     31 HAG          5.6140     1.0810     0.7490 ha         1 3QI       0.144000
     32 HAH          2.2670     0.4870    -1.8730 ha         1 3QI       0.155000
     33 CAB         -5.4200     0.9630    -0.1030 c3         1 3QI      -0.017800
@<TRIPOS>BOND
     1     1    11 1   
     2     1    20 1   
     3     1    21 1   
     4     1    22 1   
     5     2    13 1   
     6     2    26 1   
     7     2    27 1   
     8     2    28 1   
     9     3    16 2   
    10     4    15 1   
    11     4    29 1   
    12     5     6 ar  
    13     5     8 ar  
    14     5    30 1   
    15     6    11 ar  
    16     6    31 1   
    17     7    11 ar  
    18     7    14 ar  
    19     7    32 1   
    20     8    14 ar  
    21     9    15 2   
    22     9    17 1   
    23    10    12 1   
    24    10    17 1   
    25    12    13 2   
    26    12    33 1   
    27    13    18 1   
    28    14    19 1   
    29    15    19 1   
    30    16    18 1   
    31    16    19 1   
    32    17    18 2   
    33    23    33 1   
    34    24    33 1   
    35    25    33 1   
@<TRIPOS>SUBSTRUCTURE
     1 3QI         1 TEMP              0 ****  ****    0 ROOT
