@<TRIPOS>MOLECULE
3QI
   33    35     1     0     0
SMALL
No Charge or Current Charge


@<TRIPOS>ATOM
      1 CAA          5.0390     1.0810    -1.9310 c3         1 3QI      -0.053800
      2 CAC         -2.9520     2.7900     0.1720 c3         1 3QI      -0.031800
      3 OAD         -0.0360     2.1680     0.2480 o          1 3QI      -0.515000
      4 SAE          1.6110    -2.5110    -0.1410 sh         1 3QI      -0.232000
      5 CAF          3.8010     0.5230     1.6520 ca         1 3QI       0.351900
      6 CAG          4.6610     0.7900     0.5730 ca         1 3QI      -0.156000
      7 CAH          2.7800     0.5150    -0.8990 ca         1 3QI      -0.129000
      8 NAI          2.4850     0.2570     1.4950 nb         1 3QI      -0.649000
      9 NAJ         -0.9810    -1.8010    -0.1400 nc         1 3QI      -0.627100
     10 SAK         -3.6980    -1.2010    -0.2100 ss         1 3QI       0.251000
     11 CAL          4.1470     0.7920    -0.7350 ca         1 3QI      -0.030300
     12 CAM         -4.0770     0.5130    -0.0800 cc         1 3QI      -0.221300
     13 CAN         -2.9370     1.2830     0.0420 cd         1 3QI      -0.022300
     14 CAO          1.9950     0.2410     0.2370 ca         1 3QI       0.435900
     15 CAP          0.2660    -1.3550    -0.0370 cd         1 3QI       0.552800
     16 CAQ         -0.3440     0.9880     0.1440 c          1 3QI       0.610600
     17 CAR         -1.9780    -0.8520    -0.0960 cc         1 3QI       0.081400
     18 CAS         -1.7350     0.4930     0.0330 cd         1 3QI      -0.239600
     19 NAT          0.6080    -0.0140     0.1130 n          1 3QI      -0.327800
     20 HAA          5.4420     0.1510    -2.3510 hc         1 3QI       0.051367
     21 HAAA         4.4860     1.5950    -2.7260 hc         1 3QI       0.051367
     22 HAAB         5.8870     1.7180    -1.6540 hc         1 3QI       0.051367
     23 HAB         -6.2010     0.1240    -0.2200 hc         1 3QI       0.046700
     24 HABA        -5.7760     1.4970     0.8150 hc         1 3QI       0.046700
     25 HABB        -5.6880     1.6540    -0.9510 hc         1 3QI       0.046700
     26 HAC         -2.4830     3.1070     1.1110 hc         1 3QI       0.050700
     27 HACA        -2.4070     3.2600    -0.6540 hc         1 3QI       0.050700
     28 HACB        -3.9680     3.1990     0.1640 hc         1 3QI       0.050700
     29 HSAE         0.7660    -3.5560    -0.2750 hs         1 3QI       0.233800
     30 HAF          4.1770     0.5230     2.6740 h4         1 3QI       0.027100
     31 HAG          5.7110     0.9960     0.7610 ha         1 3QI       0.126000
     32 HAH          2.3280     0.5060    -1.8860 ha         1 3QI       0.137000
     33 CAB         -5.5130     0.9710    -0.1110 c3         1 3QI      -0.017800
@<TRIPOS>BOND
     1     1    11 1   
     2     1    20 1   
     3     1    21 1   
     4     1    22 1   
     5     2    13 1   
     6     2    26 1   
     7     2    27 1   
     8     2    28 1   
     9     3    16 2   
    10     4    15 1   
    11     4    29 1   
    12     5     6 ar  
    13     5     8 ar  
    14     5    30 1   
    15     6    11 ar  
    16     6    31 1   
    17     7    11 ar  
    18     7    14 ar  
    19     7    32 1   
    20     8    14 ar  
    21     9    15 2   
    22     9    17 1   
    23    10    12 1   
    24    10    17 1   
    25    12    13 2   
    26    12    33 1   
    27    13    18 1   
    28    14    19 1   
    29    15    19 1   
    30    16    18 1   
    31    16    19 1   
    32    17    18 2   
    33    23    33 1   
    34    24    33 1   
    35    25    33 1   
@<TRIPOS>SUBSTRUCTURE
     1 3QI         1 TEMP              0 ****  ****    0 ROOT
