@<TRIPOS>MOLECULE
3QL
   54    56     1     0     0
SMALL
abcg2


@<TRIPOS>ATOM
      1 O7A         -0.4220     2.7890     0.1410 o          1 3QL      -0.623100
      2 C7A         -0.0450     2.5490    -1.0000 c          1 3QL       0.627100
      3 C8A         -0.7460     3.1300    -2.2000 c3         1 3QL      -0.175100
      4 N2A          1.0310     1.7900    -1.2720 ns         1 3QL      -0.488900
      5 C2A          1.8020     1.0930    -0.2760 c6         1 3QL       0.081700
      6 C3A          3.2880     1.1500    -0.6010 c6         1 3QL       0.166300
      7 O3A          3.6970     2.4900    -0.5500 oh         1 3QL      -0.642000
      8 C4A          4.0820     0.2720     0.3640 c6         1 3QL       0.097300
      9 O4A          5.4180     0.2750    -0.0860 oh         1 3QL      -0.724000
     10 C5A          3.4930    -1.1430     0.3900 c6         1 3QL       0.153300
     11 C6A          4.1880    -2.0330     1.3960 c3         1 3QL       0.171600
     12 O6A          3.6600    -3.3330     1.2990 oh         1 3QL      -0.705000
     13 O5A          2.1260    -1.0690     0.7440 os         1 3QL      -0.458000
     14 C1A          1.3540    -0.3680    -0.1890 c6         1 3QL       0.381300
     15 O1A          0.0460    -0.3910     0.2400 os         1 3QL      -0.424000
     16 C4B         -0.7630    -1.4590    -0.2160 c6         1 3QL       0.151300
     17 C3B         -1.9100    -1.5930     0.7990 c6         1 3QL       0.163300
     18 O3B         -2.3590    -2.9240     0.7330 oh         1 3QL      -0.719000
     19 C5B         -1.2840    -1.1380    -1.6180 c5         1 3QL       0.094300
     20 O5B         -2.0540     0.0520    -1.5630 os         1 3QL      -0.452000
     21 C1B         -3.2520    -0.3950    -0.9930 c5         1 3QL       0.360300
     22 O1B         -3.5440    -1.6160    -1.6210 os         1 3QL      -0.458000
     23 C6B         -2.3210    -2.1360    -2.1300 c5         1 3QL       0.137600
     24 C2B         -3.0440    -0.5770     0.5150 c6         1 3QL       0.029700
     25 N2B         -2.7640     0.7110     1.1020 ns         1 3QL      -0.501900
     26 C7B         -3.4820     1.2430     2.1100 c          1 3QL       0.604100
     27 O7B         -4.4350     0.6760     2.6300 o          1 3QL      -0.627100
     28 C8B         -3.0320     2.6070     2.5700 c3         1 3QL      -0.181100
     29 H1          -0.6180     4.2130    -2.2020 hc         1 3QL       0.061700
     30 H2          -0.3850     2.7390    -3.1490 hc         1 3QL       0.061700
     31 H3          -1.8120     2.9250    -2.1240 hc         1 3QL       0.061700
     32 H4           1.2730     1.6360    -2.2380 hn         1 3QL       0.309500
     33 H5           1.6240     1.5630     0.6950 h1         1 3QL       0.118700
     34 H6           3.4360     0.7360    -1.6140 h1         1 3QL       0.036700
     35 H7           4.6370     2.5210    -0.7620 ho         1 3QL       0.459000
     36 H8           4.0040     0.7030     1.3730 h1         1 3QL       0.063700
     37 H9           6.0070     0.1960     0.6700 ho         1 3QL       0.514000
     38 H10          3.6030    -1.5860    -0.6140 h1         1 3QL       0.058700
     39 H11          5.2630    -2.0180     1.1850 h1         1 3QL       0.027200
     40 H12          4.0490    -1.6090     2.4010 h1         1 3QL       0.027200
     41 H13          4.1200    -3.8890     1.9330 ho         1 3QL       0.507000
     42 H14          1.4690    -0.8350    -1.1840 h2         1 3QL       0.017700
     43 H15         -0.1990    -2.4010    -0.2340 h1         1 3QL       0.080700
     44 H16         -1.5080    -1.3690     1.7960 h1         1 3QL       0.070700
     45 H17         -3.1190    -3.0230     1.3150 ho         1 3QL       0.521000
     46 H18         -0.4640    -0.9980    -2.3240 h1         1 3QL       0.082700
     47 H19         -4.0420     0.3340    -1.1950 h2         1 3QL       0.106700
     48 H20         -2.3450    -2.1420    -3.2230 h1         1 3QL       0.065200
     49 H21         -2.1560    -3.1550    -1.7810 h1         1 3QL       0.065200
     50 H22         -3.9690    -0.9440     0.9650 h1         1 3QL       0.097700
     51 H23         -1.9770     1.2360     0.7450 hn         1 3QL       0.350500
     52 H24         -3.8770     3.2940     2.5370 hc         1 3QL       0.065700
     53 H25         -2.7040     2.5470     3.6080 hc         1 3QL       0.065700
     54 H26         -2.2230     3.0240     1.9740 hc         1 3QL       0.065700
@<TRIPOS>BOND
     1     1     2 2   
     2     2     3 1   
     3     2     4 1   
     4     3    29 1   
     5     3    30 1   
     6     3    31 1   
     7     4     5 1   
     8     4    32 1   
     9     5     6 1   
    10     5    14 1   
    11     5    33 1   
    12     6     7 1   
    13     6     8 1   
    14     6    34 1   
    15     7    35 1   
    16     8     9 1   
    17     8    10 1   
    18     8    36 1   
    19     9    37 1   
    20    10    11 1   
    21    10    13 1   
    22    10    38 1   
    23    11    12 1   
    24    11    39 1   
    25    11    40 1   
    26    12    41 1   
    27    13    14 1   
    28    14    15 1   
    29    14    42 1   
    30    15    16 1   
    31    16    17 1   
    32    16    19 1   
    33    16    43 1   
    34    17    18 1   
    35    17    24 1   
    36    17    44 1   
    37    18    45 1   
    38    19    20 1   
    39    19    23 1   
    40    19    46 1   
    41    20    21 1   
    42    21    22 1   
    43    21    24 1   
    44    21    47 1   
    45    22    23 1   
    46    23    48 1   
    47    23    49 1   
    48    24    25 1   
    49    24    50 1   
    50    25    26 1   
    51    25    51 1   
    52    26    27 2   
    53    26    28 1   
    54    28    52 1   
    55    28    53 1   
    56    28    54 1   
@<TRIPOS>SUBSTRUCTURE
     1 3QL         1 TEMP              0 ****  ****    0 ROOT
