@<TRIPOS>MOLECULE
3QL
   54    56     1     0     0
SMALL
No Charge or Current Charge


@<TRIPOS>ATOM
      1 O7A         -0.4520     2.6590     0.8470 o          1 3QL      -0.623100
      2 C7A         -0.0480     2.8250    -0.2940 c          1 3QL       0.627100
      3 C8A         -0.7440     3.7460    -1.2860 c3         1 3QL      -0.175100
      4 N2A          1.0790     2.2080    -0.7810 ns         1 3QL      -0.488900
      5 C2A          1.9230     1.2360    -0.0430 c6         1 3QL       0.081700
      6 C3A          3.3810     1.2430    -0.5920 c6         1 3QL       0.166300
      7 O3A          3.9830     2.5400    -0.4690 oh         1 3QL      -0.642000
      8 C4A          4.2670     0.1890     0.1360 c6         1 3QL       0.097300
      9 O4A          5.5990     0.2010    -0.4290 oh         1 3QL      -0.724000
     10 C5A          3.5840    -1.2100     0.0170 c6         1 3QL       0.153300
     11 C6A          4.3490    -2.3370     0.7890 c3         1 3QL       0.171600
     12 O6A          3.6880    -3.6160     0.7300 oh         1 3QL      -0.705000
     13 O5A          2.2400    -1.1280     0.5510 os         1 3QL      -0.458000
     14 C1A          1.3750    -0.2210    -0.1570 c6         1 3QL       0.381300
     15 O1A          0.0650    -0.3130     0.4290 os         1 3QL      -0.424000
     16 C4B         -0.6880    -1.5120     0.1230 c6         1 3QL       0.151300
     17 C3B         -1.9150    -1.5960     1.0880 c6         1 3QL       0.163300
     18 O3B         -2.3350    -2.9630     1.2870 oh         1 3QL      -0.719000
     19 C5B         -1.1560    -1.5130    -1.3760 c5         1 3QL       0.094300
     20 O5B         -2.0030    -0.3660    -1.6020 os         1 3QL      -0.452000
     21 C1B         -3.2510    -0.7430    -0.9980 c5         1 3QL       0.360300
     22 O1B         -3.4580    -2.0740    -1.5300 os         1 3QL      -0.458000
     23 C6B         -2.1420    -2.6650    -1.7380 c5         1 3QL       0.137600
     24 C2B         -3.1110    -0.7240     0.5720 c6         1 3QL       0.029700
     25 N2B         -3.0170     0.6720     1.0720 ns         1 3QL      -0.501900
     26 C7B         -4.0470     1.5820     1.0580 c          1 3QL       0.604100
     27 O7B         -5.1680     1.2860     0.6710 o          1 3QL      -0.627100
     28 C8B         -3.7100     2.9690     1.5850 c3         1 3QL      -0.181100
     29 H1          -0.0060     4.4260    -1.7290 hc         1 3QL       0.061700
     30 H2          -1.0640     3.1530    -2.1500 hc         1 3QL       0.061700
     31 H3          -1.5850     4.2900    -0.8440 hc         1 3QL       0.061700
     32 H4           1.3450     2.4490    -1.7280 hn         1 3QL       0.309500
     33 H5           1.9410     1.5130     1.0210 h1         1 3QL       0.118700
     34 H6           3.3400     0.9660    -1.6570 h1         1 3QL       0.036700
     35 H7           4.9450     2.3780    -0.5990 ho         1 3QL       0.459000
     36 H8           4.3090     0.4570     1.2030 h1         1 3QL       0.063700
     37 H9           6.2220    -0.1500     0.2520 ho         1 3QL       0.514000
     38 H10          3.5270    -1.5010    -1.0430 h1         1 3QL       0.058700
     39 H11          5.3580    -2.4230     0.3640 h1         1 3QL       0.027200
     40 H12          4.4600    -2.0200     1.8350 h1         1 3QL       0.027200
     41 H13          4.2020    -4.2320     1.3030 ho         1 3QL       0.507000
     42 H14          1.3350    -0.5020    -1.2180 h2         1 3QL       0.017700
     43 H15         -0.0440    -2.3850     0.3080 h1         1 3QL       0.080700
     44 H16         -1.5930    -1.1920     2.0610 h1         1 3QL       0.070700
     45 H17         -2.8730    -2.9870     2.1130 ho         1 3QL       0.521000
     46 H18         -0.2930    -1.4890    -2.0530 h1         1 3QL       0.082700
     47 H19         -4.0580    -0.0750    -1.3280 h2         1 3QL       0.106700
     48 H20         -2.0490    -2.9520    -2.7940 h1         1 3QL       0.065200
     49 H21         -2.0140    -3.5670    -1.1260 h1         1 3QL       0.065200
     50 H22         -4.0390    -1.1430     0.9860 h1         1 3QL       0.097700
     51 H23         -2.1040     1.0350     1.3330 hn         1 3QL       0.350500
     52 H24         -4.6040     3.5770     1.7610 hc         1 3QL       0.065700
     53 H25         -3.0780     2.8870     2.4760 hc         1 3QL       0.065700
     54 H26         -3.0530     3.4610     0.8630 hc         1 3QL       0.065700
@<TRIPOS>BOND
     1     1     2 2   
     2     2     3 1   
     3     2     4 1   
     4     3    29 1   
     5     3    30 1   
     6     3    31 1   
     7     4     5 1   
     8     4    32 1   
     9     5     6 1   
    10     5    14 1   
    11     5    33 1   
    12     6     7 1   
    13     6     8 1   
    14     6    34 1   
    15     7    35 1   
    16     8     9 1   
    17     8    10 1   
    18     8    36 1   
    19     9    37 1   
    20    10    11 1   
    21    10    13 1   
    22    10    38 1   
    23    11    12 1   
    24    11    39 1   
    25    11    40 1   
    26    12    41 1   
    27    13    14 1   
    28    14    15 1   
    29    14    42 1   
    30    15    16 1   
    31    16    17 1   
    32    16    19 1   
    33    16    43 1   
    34    17    18 1   
    35    17    24 1   
    36    17    44 1   
    37    18    45 1   
    38    19    20 1   
    39    19    23 1   
    40    19    46 1   
    41    20    21 1   
    42    21    22 1   
    43    21    24 1   
    44    21    47 1   
    45    22    23 1   
    46    23    48 1   
    47    23    49 1   
    48    24    25 1   
    49    24    50 1   
    50    25    26 1   
    51    25    51 1   
    52    26    27 2   
    53    26    28 1   
    54    28    52 1   
    55    28    53 1   
    56    28    54 1   
@<TRIPOS>SUBSTRUCTURE
     1 3QL         1 TEMP              0 ****  ****    0 ROOT
