@<TRIPOS>MOLECULE
3QM
   22    22     1     0     0
SMALL
No Charge or Current Charge


@<TRIPOS>ATOM
      1 C45         -1.1870     0.4980    -1.1930 ca         1 3QM      -0.100500
      2 C46         -2.4930     0.9060    -0.8740 ca         1 3QM      -0.108000
      3 C47         -3.1700     0.3160     0.2070 ca         1 3QM      -0.105000
      4 C48         -2.5390    -0.6820     0.9680 ca         1 3QM      -0.108000
      5 C49         -1.2330    -1.0900     0.6490 ca         1 3QM      -0.100500
      6 C44         -0.5480    -0.5030    -0.4340 ca         1 3QM      -0.096300
      7 C43          0.8710    -0.9460    -0.7740 c3         1 3QM      -0.018100
      8 C41          1.9200    -0.4450     0.2490 c3         1 3QM      -0.019500
      9 C42          3.3340    -0.9900    -0.0510 c3         1 3QM      -0.081100
     10 N7           1.9550     1.0220     0.2460 n2         1 3QM       0.001100
     11 O1           1.9300     1.5220     1.3600 o          1 3QM      -0.156300
     12 H1          -0.6700     0.9630    -2.0310 ha         1 3QM       0.112500
     13 H2          -2.9810     1.6800    -1.4630 ha         1 3QM       0.113500
     14 H3          -4.1810     0.6330     0.4550 ha         1 3QM       0.113000
     15 H4          -3.0620    -1.1390     1.8050 ha         1 3QM       0.113500
     16 H5          -0.7520    -1.8640     1.2430 ha         1 3QM       0.112500
     17 H6           0.9070    -2.0420    -0.8100 hc         1 3QM       0.058700
     18 H7           1.1510    -0.6030    -1.7790 hc         1 3QM       0.058700
     19 H8           1.6250    -0.8160     1.2400 h1         1 3QM       0.071700
     20 H9           4.0520    -0.6400     0.7010 hc         1 3QM       0.046033
     21 H10          3.3370    -2.0870    -0.0360 hc         1 3QM       0.046033
     22 H11          3.6820    -0.6600    -1.0380 hc         1 3QM       0.046033
@<TRIPOS>BOND
     1     1     2 ar  
     2     1     6 ar  
     3     1    12 1   
     4     2     3 ar  
     5     2    13 1   
     6     3     4 ar  
     7     3    14 1   
     8     4     5 ar  
     9     4    15 1   
    10     5     6 ar  
    11     5    16 1   
    12     6     7 1   
    13     7     8 1   
    14     7    17 1   
    15     7    18 1   
    16     8     9 1   
    17     8    10 1   
    18     8    19 1   
    19     9    20 1   
    20     9    21 1   
    21     9    22 1   
    22    10    11 2   
@<TRIPOS>SUBSTRUCTURE
     1 3QM         1 TEMP              0 ****  ****    0 ROOT
