@<TRIPOS>MOLECULE
3QM
   22    22     1     0     0
SMALL
bcc


@<TRIPOS>ATOM
      1 C45         -1.0890     0.5480    -1.0480 ca         1 3QM      -0.118500
      2 C46         -2.3700     0.9840    -0.7330 ca         1 3QM      -0.126000
      3 C47         -3.1110     0.3230     0.2370 ca         1 3QM      -0.123000
      4 C48         -2.5650    -0.7760     0.8880 ca         1 3QM      -0.126000
      5 C49         -1.2860    -1.2090     0.5680 ca         1 3QM      -0.118500
      6 C44         -0.5320    -0.5540    -0.4040 ca         1 3QM      -0.096300
      7 C43          0.8670    -1.0070    -0.7180 c3         1 3QM      -0.018100
      8 C41          1.9100    -0.4220     0.2450 c3         1 3QM      -0.019500
      9 C42          3.3020    -0.9720    -0.0370 c3         1 3QM      -0.081100
     10 N7           1.9570     1.0240    -0.0050 n2         1 3QM       0.001100
     11 O1           1.6440     1.7080     0.9220 o          1 3QM      -0.156300
     12 H1          -0.5190     1.0670    -1.8090 ha         1 3QM       0.130500
     13 H2          -2.7880     1.8390    -1.2470 ha         1 3QM       0.131500
     14 H3          -4.1100     0.6600     0.4830 ha         1 3QM       0.131000
     15 H4          -3.1380    -1.2990     1.6420 ha         1 3QM       0.131500
     16 H5          -0.8700    -2.0710     1.0780 ha         1 3QM       0.130500
     17 H6           0.9380    -2.0950    -0.6470 hc         1 3QM       0.058700
     18 H7           1.1370    -0.7370    -1.7420 hc         1 3QM       0.058700
     19 H8           1.6190    -0.6130     1.2830 h1         1 3QM       0.071700
     20 H9           4.0430    -0.5440     0.6370 hc         1 3QM       0.046033
     21 H10          3.2990    -2.0520     0.1110 hc         1 3QM       0.046033
     22 H11          3.6100    -0.7700    -1.0630 hc         1 3QM       0.046033
@<TRIPOS>BOND
     1     1     2 ar  
     2     1     6 ar  
     3     1    12 1   
     4     2     3 ar  
     5     2    13 1   
     6     3     4 ar  
     7     3    14 1   
     8     4     5 ar  
     9     4    15 1   
    10     5     6 ar  
    11     5    16 1   
    12     6     7 1   
    13     7     8 1   
    14     7    17 1   
    15     7    18 1   
    16     8     9 1   
    17     8    10 1   
    18     8    19 1   
    19     9    20 1   
    20     9    21 1   
    21     9    22 1   
    22    10    11 2   
@<TRIPOS>SUBSTRUCTURE
     1 3QM         1 TEMP              0 ****  ****    0 ROOT
