@<TRIPOS>MOLECULE
3QN
   45    45     1     0     0
SMALL
bcc


@<TRIPOS>ATOM
      1 C1          -7.5160    -1.2000     0.7610 c          1 3QN       0.933600
      2 N1          -7.1330    -0.4700    -1.5650 n8         1 3QN      -0.886800
      3 O1          -8.5070    -0.4430     0.7430 o          1 3QN      -0.846300
      4 P1           4.6630    -2.6180     0.2190 p5         1 3QN       1.271900
      5 C2           3.7790     3.0350     0.6480 ca         1 3QN      -0.086000
      6 C3           2.5670     3.6760     0.4690 ca         1 3QN      -0.206300
      7 C4           1.4840     2.9040     0.0220 ca         1 3QN       0.196100
      8 O2           0.3150     3.5190    -0.1470 oh         1 3QN      -0.563100
      9 C5           1.6370     1.5260    -0.2370 ca         1 3QN      -0.306900
     10 C6           2.8900     0.9050    -0.0460 ca         1 3QN       0.038700
     11 C7           3.9490     1.6740     0.3980 ca         1 3QN      -0.160000
     12 C8          -6.5070    -1.0790    -0.4030 c3         1 3QN       0.020500
     13 C9          -5.2550    -0.3480     0.1150 c3         1 3QN      -0.098400
     14 C10         -2.8830     0.4340    -0.3430 c3         1 3QN      -0.079400
     15 C11         -1.7490     0.4750    -1.3600 c3         1 3QN       0.130800
     16 C12         -4.1100    -0.2860    -0.8890 c3         1 3QN      -0.078400
     17 N2          -0.6510     1.2820    -0.8900 n2         1 3QN      -0.719900
     18 O3           4.0660    -3.3560    -0.9740 o          1 3QN      -0.923167
     19 O4           3.9340    -2.8670     1.5340 o          1 3QN      -0.923167
     20 O5           6.1810    -2.6350     0.3050 o          1 3QN      -0.923167
     21 C14          0.4930     0.7540    -0.7060 ce         1 3QN       0.546800
     22 C15          3.0760    -0.5700    -0.3320 c3         1 3QN       0.245700
     23 OXT         -7.2270    -2.0230     1.6540 o          1 3QN      -0.846300
     24 H1          -7.6100     0.3720    -1.2670 hn         1 3QN       0.318800
     25 H2          -6.4330    -0.1870    -2.2380 hn         1 3QN       0.318800
     26 H3           4.6290     3.6130     0.9940 ha         1 3QN       0.097000
     27 H4           4.9180     1.2210     0.5540 ha         1 3QN       0.180000
     28 H5          -6.1950    -2.0940    -0.6790 h1         1 3QN       0.044700
     29 H6          -5.5350     0.6700     0.4120 hc         1 3QN       0.044200
     30 H7          -4.9040    -0.8540     1.0190 hc         1 3QN       0.044200
     31 H8          -2.5360    -0.0610     0.5690 hc         1 3QN       0.045700
     32 H9          -1.4230    -0.5450    -1.6010 h1         1 3QN       0.031700
     33 H10         -2.1200     0.9220    -2.2870 h1         1 3QN       0.031700
     34 H11         -3.8350    -1.3040    -1.1870 hc         1 3QN       0.023200
     35 H12         -4.4300     0.2250    -1.8040 hc         1 3QN       0.023200
     36 H14          2.0690     5.6790    -0.1600 hc         1 3QN       0.014033
     37 H15          1.6440     5.3290     1.5050 hc         1 3QN       0.014033
     38 H16          3.3300     5.5860     1.0650 hc         1 3QN       0.014033
     39 H18          0.6410    -0.3090    -0.9070 h4         1 3QN       0.004800
     40 H19          2.3810    -1.1360     0.3050 h1         1 3QN       0.019700
     41 H20          2.7630    -0.7700    -1.3680 h1         1 3QN       0.019700
     42 H22         -3.1510     1.4570    -0.0640 hc         1 3QN       0.045700
     43 H23         -0.3440     2.8320    -0.4620 ho         1 3QN       0.485000
     44 C13          2.3930     5.1410     0.7330 c3         1 3QN      -0.002800
     45 O6           4.3900    -0.9590    -0.1190 os         1 3QN      -0.557200
@<TRIPOS>BOND
     1     1     3 1   
     2     1    12 1   
     3     1    23 1   
     4     2    12 1   
     5     2    24 1   
     6     2    25 1   
     7     4    18 1   
     8     4    19 1   
     9     4    20 1   
    10     4    45 1   
    11     5     6 ar  
    12     5    11 ar  
    13     5    26 1   
    14     6     7 ar  
    15     6    44 1   
    16     7     8 1   
    17     7     9 ar  
    18     8    43 1   
    19     9    10 ar  
    20     9    21 1   
    21    10    11 ar  
    22    10    22 1   
    23    11    27 1   
    24    12    13 1   
    25    12    28 1   
    26    13    16 1   
    27    13    29 1   
    28    13    30 1   
    29    14    15 1   
    30    14    16 1   
    31    14    31 1   
    32    14    42 1   
    33    15    17 1   
    34    15    32 1   
    35    15    33 1   
    36    16    34 1   
    37    16    35 1   
    38    17    21 2   
    39    21    39 1   
    40    22    40 1   
    41    22    41 1   
    42    22    45 1   
    43    36    44 1   
    44    37    44 1   
    45    38    44 1   
@<TRIPOS>SUBSTRUCTURE
     1 3QN         1 TEMP              0 ****  ****    0 ROOT
