@<TRIPOS>MOLECULE
3QN
   45    45     1     0     0
SMALL
No Charge or Current Charge


@<TRIPOS>ATOM
      1 C1          -7.2780    -1.5760     1.0110 c          1 3QN       0.723000
      2 N1          -7.1640    -0.5760    -1.4220 n8         1 3QN      -0.997200
      3 O1          -7.8750    -0.6740     1.5870 o          1 3QN      -0.741000
      4 P1           4.4610    -2.6630     0.1540 p5         1 3QN       1.271900
      5 C2           3.7940     3.0570     0.8210 ca         1 3QN      -0.068000
      6 C3           2.6430     3.7570     0.4330 ca         1 3QN      -0.206300
      7 C4           1.5420     3.0430    -0.0790 ca         1 3QN       0.196100
      8 O2           0.4290     3.7300    -0.4480 oh         1 3QN      -0.602100
      9 C5           1.5740     1.6300    -0.2080 ca         1 3QN      -0.306900
     10 C6           2.7580     0.9320     0.1720 ca         1 3QN       0.038700
     11 C7           3.8490     1.6650     0.6910 ca         1 3QN      -0.142000
     12 C8          -6.4220    -1.2210    -0.2790 c3         1 3QN       0.020500
     13 C9          -5.1800    -0.3680     0.1000 c3         1 3QN      -0.098400
     14 C10         -2.8640     0.5480    -0.5760 c3         1 3QN      -0.079400
     15 C11         -1.8050     0.6690    -1.6900 c3         1 3QN       0.130800
     16 C12         -4.1120    -0.2500    -1.0160 c3         1 3QN      -0.078400
     17 N2          -0.6570     1.4530    -1.2160 n2         1 3QN      -0.719900
     18 O3           4.1330    -3.1370    -1.2180 o          1 3QN      -0.923167
     19 O4           3.6330    -3.3840     1.1580 o          1 3QN      -0.923167
     20 O5           5.9010    -2.9160     0.4310 o          1 3QN      -0.923167
     21 C14          0.3970     0.8560    -0.7430 ce         1 3QN       0.546800
     22 C15          2.8560    -0.6050     0.0300 c3         1 3QN       0.268900
     23 OXT         -7.3680    -2.7510     1.3440 o          1 3QN      -0.741000
     24 H1          -7.6020     0.2880    -1.0800 hn         1 3QN       0.374000
     25 H2          -6.4830    -0.2490    -2.1170 hn         1 3QN       0.374000
     26 H3           4.6530     3.5900     1.2220 ha         1 3QN       0.079000
     27 H4           4.7590     1.1560     0.9990 ha         1 3QN       0.162000
     28 H5          -6.0400    -2.1800    -0.6570 h1         1 3QN       0.044700
     29 H6          -5.5030     0.6350     0.4070 hc         1 3QN       0.044200
     30 H7          -4.7080    -0.8230     0.9800 hc         1 3QN       0.044200
     31 H8          -2.4150     0.0610     0.2990 hc         1 3QN       0.045700
     32 H9          -1.4960    -0.3380    -2.0060 h1         1 3QN       0.031700
     33 H10         -2.2600     1.1590    -2.5610 h1         1 3QN       0.031700
     34 H11         -3.8020    -1.2560    -1.3260 hc         1 3QN       0.023200
     35 H12         -4.5480     0.2370    -1.8970 hc         1 3QN       0.023200
     36 H14          2.4440     5.7610    -0.3930 hc         1 3QN       0.014033
     37 H15          1.7950     5.5890     1.2480 hc         1 3QN       0.014033
     38 H16          3.5410     5.6720     0.9890 hc         1 3QN       0.014033
     39 H18          0.4300    -0.2330    -0.6850 h4         1 3QN       0.004800
     40 H19          2.1580    -1.0650     0.7430 h1         1 3QN       0.019700
     41 H20          2.5360    -0.8840    -0.9820 h1         1 3QN       0.019700
     42 H22         -3.1720     1.5530    -0.2630 hc         1 3QN       0.045700
     43 H23         -0.1880     3.0320    -0.8050 ho         1 3QN       0.524000
     44 C13          2.6050     5.2770     0.5770 c3         1 3QN      -0.002800
     45 O6           4.1870    -1.0840     0.2610 os         1 3QN      -0.580400
@<TRIPOS>BOND
     1     1     3 1   
     2     1    12 1   
     3     1    23 1   
     4     2    12 1   
     5     2    24 1   
     6     2    25 1   
     7     4    18 1   
     8     4    19 1   
     9     4    20 1   
    10     4    45 1   
    11     5     6 ar  
    12     5    11 ar  
    13     5    26 1   
    14     6     7 ar  
    15     6    44 1   
    16     7     8 1   
    17     7     9 ar  
    18     8    43 1   
    19     9    10 ar  
    20     9    21 1   
    21    10    11 ar  
    22    10    22 1   
    23    11    27 1   
    24    12    13 1   
    25    12    28 1   
    26    13    16 1   
    27    13    29 1   
    28    13    30 1   
    29    14    15 1   
    30    14    16 1   
    31    14    31 1   
    32    14    42 1   
    33    15    17 1   
    34    15    32 1   
    35    15    33 1   
    36    16    34 1   
    37    16    35 1   
    38    17    21 2   
    39    21    39 1   
    40    22    40 1   
    41    22    41 1   
    42    22    45 1   
    43    36    44 1   
    44    37    44 1   
    45    38    44 1   
@<TRIPOS>SUBSTRUCTURE
     1 3QN         1 TEMP              0 ****  ****    0 ROOT
