@<TRIPOS>MOLECULE
3QO
   24    25     1     0     0
SMALL
abcg2


@<TRIPOS>ATOM
      1 CAA          3.5340    -0.0130    -0.9190 ca         1 3QO      -0.108000
      2 CAB          2.9630     1.1890    -0.5210 ca         1 3QO      -0.108000
      3 CAC          2.9620    -1.2110    -0.5110 ca         1 3QO      -0.108000
      4 CAD         -2.9250    -1.1280    -0.5940 ca         1 3QO       0.335900
      5 CAE         -2.9460     1.1390    -0.5600 ca         1 3QO       0.335900
      6 CAF          1.8290     1.1910     0.2800 ca         1 3QO      -0.103000
      7 CAG          1.8270    -1.2050     0.2900 ca         1 3QO      -0.103000
      8 CAH         -1.8080    -1.1830     0.2250 ca         1 3QO      -0.160000
      9 CAI         -1.8290     1.1890     0.2610 ca         1 3QO      -0.160000
     10 NAK         -3.4940     0.0060    -0.9870 nb         1 3QO      -0.666000
     11 CAL          1.2490    -0.0050     0.6940 ca         1 3QO      -0.080300
     12 CAM         -1.2350     0.0020     0.6730 ca         1 3QO      -0.035300
     13 HAA          4.4200    -0.0150    -1.5400 ha         1 3QO       0.113000
     14 HAB          3.4050     2.1290    -0.8270 ha         1 3QO       0.113000
     15 HAC          3.4020    -2.1530    -0.8100 ha         1 3QO       0.113000
     16 HAE         -3.4210     2.0590    -0.8820 h4         1 3QO       0.017600
     17 HAF          1.3930     2.1340     0.5880 ha         1 3QO       0.110000
     18 HAG          1.3910    -2.1450     0.6050 ha         1 3QO       0.110000
     19 HAH         -1.3970    -2.1440     0.5100 ha         1 3QO       0.120500
     20 HAI         -1.4360     2.1480     0.5740 ha         1 3QO       0.120500
     21 CAJ         -0.0030    -0.0000     1.5380 c3         1 3QO       0.010200
     22 HAD         -3.3830    -2.0470    -0.9440 h4         1 3QO       0.017600
     23 HAJ         -0.0150    -0.8780     2.1870 hc         1 3QO       0.057700
     24 HAJA        -0.0100     0.8780     2.1850 hc         1 3QO       0.057700
@<TRIPOS>BOND
     1     1     2 ar  
     2     1     3 ar  
     3     1    13 1   
     4     2     6 ar  
     5     2    14 1   
     6     3     7 ar  
     7     3    15 1   
     8     4     8 ar  
     9     4    10 ar  
    10     4    22 1   
    11     5     9 ar  
    12     5    10 ar  
    13     5    16 1   
    14     6    11 ar  
    15     6    17 1   
    16     7    11 ar  
    17     7    18 1   
    18     8    12 ar  
    19     8    19 1   
    20     9    12 ar  
    21     9    20 1   
    22    11    21 1   
    23    12    21 1   
    24    21    23 1   
    25    21    24 1   
@<TRIPOS>SUBSTRUCTURE
     1 3QO         1 TEMP              0 ****  ****    0 ROOT
