@<TRIPOS>MOLECULE
3QO
   24    25     1     0     0
SMALL
No Charge or Current Charge


@<TRIPOS>ATOM
      1 CAA          3.5970    -0.0040    -0.9040 ca         1 3QO      -0.108000
      2 CAB          3.0160     1.2120    -0.5070 ca         1 3QO      -0.108000
      3 CAC          3.0130    -1.2210    -0.5140 ca         1 3QO      -0.108000
      4 CAD         -3.0000    -1.1550    -0.5700 ca         1 3QO       0.335900
      5 CAE         -2.9980     1.1610    -0.5630 ca         1 3QO       0.335900
      6 CAF          1.8520     1.2110     0.2820 ca         1 3QO      -0.103000
      7 CAG          1.8490    -1.2220     0.2740 ca         1 3QO      -0.103000
      8 CAH         -1.8500    -1.2030     0.2360 ca         1 3QO      -0.160000
      9 CAI         -1.8470     1.2020     0.2440 ca         1 3QO      -0.160000
     10 NAK         -3.5730     0.0050    -0.9680 nb         1 3QO      -0.666000
     11 CAL          1.2630    -0.0060     0.6780 ca         1 3QO      -0.080300
     12 CAM         -1.2530    -0.0030     0.6590 ca         1 3QO      -0.035300
     13 HAA          4.4980    -0.0030    -1.5150 ha         1 3QO       0.113000
     14 HAB          3.4670     2.1550    -0.8100 ha         1 3QO       0.113000
     15 HAC          3.4610    -2.1630    -0.8230 ha         1 3QO       0.113000
     16 HAE         -3.4740     2.0830    -0.8960 h4         1 3QO       0.017600
     17 HAF          1.4070     2.1570     0.5830 ha         1 3QO       0.110000
     18 HAG          1.4020    -2.1680     0.5700 ha         1 3QO       0.110000
     19 HAH         -1.4320    -2.1650     0.5220 ha         1 3QO       0.120500
     20 HAI         -1.4280     2.1610     0.5360 ha         1 3QO       0.120500
     21 CAJ         -0.0020    -0.0070     1.5260 c3         1 3QO       0.010200
     22 HAD         -3.4780    -2.0740    -0.9090 h4         1 3QO       0.017600
     23 HAJ         -0.0090    -0.8810     2.1890 hc         1 3QO       0.057700
     24 HAJA        -0.0070     0.8630     2.1940 hc         1 3QO       0.057700
@<TRIPOS>BOND
     1     1     2 ar  
     2     1     3 ar  
     3     1    13 1   
     4     2     6 ar  
     5     2    14 1   
     6     3     7 ar  
     7     3    15 1   
     8     4     8 ar  
     9     4    10 ar  
    10     4    22 1   
    11     5     9 ar  
    12     5    10 ar  
    13     5    16 1   
    14     6    11 ar  
    15     6    17 1   
    16     7    11 ar  
    17     7    18 1   
    18     8    12 ar  
    19     8    19 1   
    20     9    12 ar  
    21     9    20 1   
    22    11    21 1   
    23    12    21 1   
    24    21    23 1   
    25    21    24 1   
@<TRIPOS>SUBSTRUCTURE
     1 3QO         1 TEMP              0 ****  ****    0 ROOT
