@<TRIPOS>MOLECULE
3QP
   36    36     1     0     0
SMALL
No Charge or Current Charge


@<TRIPOS>ATOM
      1 C01          0.6220     4.9620    -0.8320 c3         1 3QP       0.012200
      2 C02         -0.0500     3.6310    -0.4960 ca         1 3QP      -0.224300
      3 C03          0.6950     2.4400    -0.3910 ca         1 3QP       0.199100
      4 O04          2.0390     2.4930    -0.5990 oh         1 3QP      -0.622100
      5 C05          0.0680     1.2030    -0.0780 ca         1 3QP      -0.248900
      6 C06         -1.3430     1.1810     0.1280 ca         1 3QP       0.019700
      7 C07         -2.0750    -0.1390     0.4670 c3         1 3QP       0.271900
      8 O08         -3.4900     0.0450     0.6050 os         1 3QP      -0.597400
      9 P09         -4.3990    -1.2330     0.9490 p5         1 3QP       1.277900
     10 O10         -4.2650    -2.2490    -0.1290 o          1 3QP      -0.932500
     11 O11         -3.9800    -1.8100     2.2540 o          1 3QP      -0.932500
     12 O12         -5.8190    -0.7960     1.0380 o          1 3QP      -0.932500
     13 C13         -2.0720     2.3880     0.0180 ca         1 3QP      -0.132000
     14 C14         -1.4360     3.5960    -0.2890 ca         1 3QP      -0.099000
     15 C15          0.8560    -0.0770     0.0440 ce         1 3QP       0.486800
     16 N16          2.1440    -0.1140    -0.1240 n2         1 3QP      -0.615900
     17 C17          2.8950    -1.3880     0.0470 c3         1 3QP       0.015500
     18 C18          4.3860    -1.1800    -0.3500 c3         1 3QP      -0.174400
     19 C19          4.5440    -1.0800    -1.8790 c          1 3QP       0.705000
     20 O20          4.6430    -2.1180    -2.5160 o          1 3QP      -0.762500
     21 O21          4.5670     0.0270    -2.3970 o          1 3QP      -0.762500
     22 C22          2.7430    -2.0210     1.4850 c          1 3QP       0.724000
     23 O23          3.3310    -1.5110     2.4320 o          1 3QP      -0.766000
     24 O24          2.0110    -2.9940     1.6120 o          1 3QP      -0.766000
     25 H01          1.1200     4.9160    -1.8080 hc         1 3QP      -0.001633
     26 H01A        -0.1010     5.7850    -0.8730 hc         1 3QP      -0.001633
     27 H01B         1.3750     5.2240    -0.0790 hc         1 3QP      -0.001633
     28 HO04         2.3560     1.5540    -0.4920 ho         1 3QP       0.548000
     29 H07         -1.8690    -0.8650    -0.3310 h1         1 3QP       0.021700
     30 H07A        -1.6550    -0.5380     1.4000 h1         1 3QP       0.021700
     31 H13         -3.1480     2.4010     0.1720 ha         1 3QP       0.147000
     32 H14         -2.0270     4.5050    -0.3650 ha         1 3QP       0.052000
     33 H15          0.3110    -0.9940     0.2730 h4         1 3QP      -0.005200
     34 H17          2.4860    -2.1370    -0.6450 h1         1 3QP       0.045700
     35 H18          4.7310    -0.2650     0.1490 hc         1 3QP       0.015700
     36 H18A         4.8950    -2.0850     0.0030 hc         1 3QP       0.015700
@<TRIPOS>BOND
     1     1     2 1   
     2     1    25 1   
     3     1    26 1   
     4     1    27 1   
     5     2     3 ar  
     6     2    14 ar  
     7     3     4 1   
     8     3     5 ar  
     9     4    28 1   
    10     5     6 ar  
    11     5    15 1   
    12     6     7 1   
    13     6    13 ar  
    14     7     8 1   
    15     7    29 1   
    16     7    30 1   
    17     8     9 1   
    18     9    10 1   
    19     9    11 1   
    20     9    12 1   
    21    13    14 ar  
    22    13    31 1   
    23    14    32 1   
    24    15    16 2   
    25    15    33 1   
    26    16    17 1   
    27    17    18 1   
    28    17    22 1   
    29    17    34 1   
    30    18    19 1   
    31    18    35 1   
    32    18    36 1   
    33    19    20 1   
    34    19    21 1   
    35    22    23 1   
    36    22    24 1   
@<TRIPOS>SUBSTRUCTURE
     1 3QP         1 TEMP              0 ****  ****    0 ROOT
