@<TRIPOS>MOLECULE
3QP
   36    36     1     0     0
SMALL
bcc


@<TRIPOS>ATOM
      1 C01          0.5340     4.7770    -0.7920 c3         1 3QP       0.012200
      2 C02         -0.0910     3.4690    -0.4100 ca         1 3QP      -0.224300
      3 C03          0.7140     2.3560    -0.1290 ca         1 3QP       0.199100
      4 O04          2.0370     2.5040    -0.2060 oh         1 3QP      -0.583100
      5 C05          0.1350     1.1190     0.2260 ca         1 3QP      -0.248900
      6 C06         -1.2660     0.9960     0.3180 ca         1 3QP       0.019700
      7 C07         -1.9020    -0.3110     0.7470 c3         1 3QP       0.248700
      8 O08         -3.2720    -0.2110     0.9360 os         1 3QP      -0.574200
      9 P09         -4.2820    -0.9880    -0.2100 p5         1 3QP       1.277900
     10 O10         -3.8200    -0.4650    -1.5650 o          1 3QP      -0.932500
     11 O11         -4.0210    -2.4770     0.0030 o          1 3QP      -0.932500
     12 O12         -5.6470    -0.4990     0.2500 o          1 3QP      -0.932500
     13 C13         -2.0510     2.1000     0.0340 ca         1 3QP      -0.150000
     14 C14         -1.4600     3.3080    -0.3240 ca         1 3QP      -0.117000
     15 C15          0.9970    -0.0280     0.4660 ce         1 3QP       0.486800
     16 N16          2.2640     0.0550     0.4210 n2         1 3QP      -0.615900
     17 C17          3.0610    -1.1250     0.6210 c3         1 3QP       0.015500
     18 C18          3.8780    -1.3770    -0.6420 c3         1 3QP      -0.174400
     19 C19          3.0240    -1.6520    -1.8920 c          1 3QP       0.915600
     20 O20          1.9820    -2.3290    -1.7300 o          1 3QP      -0.867800
     21 O21          3.4490    -1.2180    -2.9830 o          1 3QP      -0.867800
     22 C22          3.9810    -0.9980     1.8670 c          1 3QP       0.934600
     23 O23          3.9240     0.0540     2.5290 o          1 3QP      -0.871300
     24 O24          4.6790    -2.0040     2.0930 o          1 3QP      -0.871300
     25 H01          1.1210     4.6980    -1.7110 hc         1 3QP      -0.001633
     26 H01A        -0.2310     5.5350    -0.9570 hc         1 3QP      -0.001633
     27 H01B         1.2080     5.1490    -0.0180 hc         1 3QP      -0.001633
     28 HO04         2.4510     1.6220     0.0370 ho         1 3QP       0.509000
     29 H07         -1.6420    -1.0870     0.0140 h1         1 3QP       0.021700
     30 H07A        -1.4340    -0.6280     1.6890 h1         1 3QP       0.021700
     31 H13         -3.1270     2.0220     0.0910 ha         1 3QP       0.165000
     32 H14         -2.0950     4.1610    -0.5400 ha         1 3QP       0.070000
     33 H15          0.5190    -0.9880     0.6760 h4         1 3QP      -0.005200
     34 H17          2.4090    -1.9980     0.7760 h1         1 3QP       0.045700
     35 H18          4.5500    -0.5340    -0.8210 hc         1 3QP       0.015700
     36 H18A         4.5130    -2.2490    -0.4630 hc         1 3QP       0.015700
@<TRIPOS>BOND
     1     1     2 1   
     2     1    25 1   
     3     1    26 1   
     4     1    27 1   
     5     2     3 ar  
     6     2    14 ar  
     7     3     4 1   
     8     3     5 ar  
     9     4    28 1   
    10     5     6 ar  
    11     5    15 1   
    12     6     7 1   
    13     6    13 ar  
    14     7     8 1   
    15     7    29 1   
    16     7    30 1   
    17     8     9 1   
    18     9    10 1   
    19     9    11 1   
    20     9    12 1   
    21    13    14 ar  
    22    13    31 1   
    23    14    32 1   
    24    15    16 2   
    25    15    33 1   
    26    16    17 1   
    27    17    18 1   
    28    17    22 1   
    29    17    34 1   
    30    18    19 1   
    31    18    35 1   
    32    18    36 1   
    33    19    20 1   
    34    19    21 1   
    35    22    23 1   
    36    22    24 1   
@<TRIPOS>SUBSTRUCTURE
     1 3QP         1 TEMP              0 ****  ****    0 ROOT
