@<TRIPOS>MOLECULE
3QQ
   64    66     1     0     0
SMALL
bcc


@<TRIPOS>ATOM
      1 C4          -3.6220     1.6420     0.3680 c3         1 3QQ       0.221800
      2 C6          -3.5150    -0.8360     0.3480 c3         1 3QQ       0.267100
      3 C11         -6.7470    -1.9880     1.9820 ca         1 3QQ      -0.172500
      4 C7          -4.9420    -1.2800     0.5350 ca         1 3QQ      -0.111300
      5 C8          -5.7850    -1.4250    -0.5640 ca         1 3QQ      -0.085500
      6 C9          -7.0960    -1.8430    -0.4060 ca         1 3QQ      -0.172500
      7 C10         -7.5540    -2.1160     0.8700 ca         1 3QQ       0.139900
      8 C12         -5.4360    -1.5650     1.8010 ca         1 3QQ      -0.085500
      9 C3          -5.1750     3.2770     1.4040 c3         1 3QQ      -0.087100
     10 C1          -5.7030     2.3570    -0.8770 c3         1 3QQ      -0.087100
     11 C2          -5.0870     2.0640     0.4830 c3         1 3QQ      -0.066700
     12 N5          -3.4210     0.4130    -0.4000 n3         1 3QQ      -0.753500
     13 F13         -8.8260    -2.5180     1.0300 f          1 3QQ      -0.143900
     14 S14         -2.4480     0.4670    -1.7290 sy         1 3QQ       1.333200
     15 O15         -2.5860    -0.8160    -2.4030 o          1 3QQ      -0.610800
     16 O16         -2.7690     1.6900    -2.4470 o          1 3QQ      -0.610800
     17 C17         -0.7910     0.6070    -1.1670 ca         1 3QQ      -0.508800
     18 C18         -0.0580    -0.5210    -0.7900 ca         1 3QQ       0.045000
     19 C19          1.2180    -0.3670    -0.3140 ca         1 3QQ      -0.346300
     20 C20          1.7540     0.9380    -0.2210 ca         1 3QQ       0.736200
     21 N21          1.0470     2.0130    -0.6000 nb         1 3QQ      -0.777000
     22 C22         -0.1800     1.8490    -1.0530 ca         1 3QQ       0.563200
     23 N23          2.9860     1.1870     0.2540 nu         1 3QQ      -0.871900
     24 C24          3.9700     0.1960     0.6250 c6         1 3QQ       0.245500
     25 C25          4.6670    -0.4230    -0.5880 c6         1 3QQ      -0.128400
     26 C26          5.7500    -1.4020    -0.1540 c6         1 3QQ       0.206800
     27 N27          6.7030    -0.8020     0.7790 n3         1 3QQ      -0.751500
     28 C28          6.0790    -0.1690     1.9390 c6         1 3QQ       0.206800
     29 C29          4.9990     0.8330     1.5530 c6         1 3QQ      -0.128400
     30 S30          8.1620    -0.2700     0.2410 s6         1 3QQ       1.241900
     31 O31          8.9790    -0.0020     1.4150 o          1 3QQ      -0.600300
     32 O32          8.6340    -1.2350    -0.7420 o          1 3QQ      -0.600300
     33 C33          7.9130     1.2780    -0.6050 c3         1 3QQ      -0.267300
     34 H1          -3.0620     2.4620    -0.0870 h1         1 3QQ       0.044200
     35 H2          -3.1960     1.4960     1.3660 h1         1 3QQ       0.044200
     36 H3          -3.0300    -0.7170     1.3220 h1         1 3QQ       0.054700
     37 H4          -2.9710    -1.6230    -0.1740 h1         1 3QQ       0.054700
     38 H6          -5.4180    -1.2010    -1.5580 ha         1 3QQ       0.140500
     39 H7          -7.7520    -1.9530    -1.2600 ha         1 3QQ       0.151500
     40 H8          -4.7960    -1.4480     2.6670 ha         1 3QQ       0.140500
     41 H9          -4.6280     4.1280     0.9910 hc         1 3QQ       0.036867
     42 H10         -6.2110     3.5870     1.5410 hc         1 3QQ       0.036867
     43 H11         -4.7610     3.0640     2.3910 hc         1 3QQ       0.036867
     44 H12         -5.6440     1.4930    -1.5390 hc         1 3QQ       0.036867
     45 H13         -6.7550     2.6260    -0.7720 hc         1 3QQ       0.036867
     46 H14         -5.1920     3.1880    -1.3670 hc         1 3QQ       0.036867
     47 H15         -5.6480     1.2490     0.9480 hc         1 3QQ       0.057700
     48 H16         -0.4700    -1.5180    -0.8830 ha         1 3QQ       0.150000
     49 H17          1.7930    -1.2370    -0.0320 ha         1 3QQ       0.144000
     50 H18         -0.6990     2.7520    -1.3530 h4         1 3QQ       0.041100
     51 H19          3.2870     2.1480     0.1970 hn         1 3QQ       0.449800
     52 H20          3.4660    -0.5980     1.1870 h1         1 3QQ       0.066700
     53 H21          3.9510    -0.9550    -1.2170 hc         1 3QQ       0.059950
     54 H22          5.0960     0.3730    -1.2040 hc         1 3QQ       0.059950
     55 H23          5.2980    -2.2560     0.3580 h1         1 3QQ       0.076450
     56 H24          6.2780    -1.8020    -1.0160 h1         1 3QQ       0.076450
     57 H25          5.6380    -0.9690     2.5410 h1         1 3QQ       0.076450
     58 H26          6.8370     0.3030     2.5600 h1         1 3QQ       0.076450
     59 H27          5.4480     1.7040     1.0650 hc         1 3QQ       0.059950
     60 H28          4.5120     1.1920     2.4620 hc         1 3QQ       0.059950
     61 H29          7.5080     2.0120     0.0880 h1         1 3QQ       0.100033
     62 H30          8.8800     1.6170    -0.9730 h1         1 3QQ       0.100033
     63 H31          7.2300     1.1330    -1.4390 h1         1 3QQ       0.100033
     64 H5          -7.1310    -2.2030     2.9700 ha         1 3QQ       0.151500
@<TRIPOS>BOND
     1     1    11 1   
     2     1    12 1   
     3     1    34 1   
     4     1    35 1   
     5     2     4 1   
     6     2    12 1   
     7     2    36 1   
     8     2    37 1   
     9     3     7 ar  
    10     3     8 ar  
    11     3    64 1   
    12     4     5 ar  
    13     4     8 ar  
    14     5     6 ar  
    15     5    38 1   
    16     6     7 ar  
    17     6    39 1   
    18     7    13 1   
    19     8    40 1   
    20     9    11 1   
    21     9    41 1   
    22     9    42 1   
    23     9    43 1   
    24    10    11 1   
    25    10    44 1   
    26    10    45 1   
    27    10    46 1   
    28    11    47 1   
    29    12    14 1   
    30    14    15 2   
    31    14    16 2   
    32    14    17 1   
    33    17    18 ar  
    34    17    22 ar  
    35    18    19 ar  
    36    18    48 1   
    37    19    20 ar  
    38    19    49 1   
    39    20    21 ar  
    40    20    23 1   
    41    21    22 ar  
    42    22    50 1   
    43    23    24 1   
    44    23    51 1   
    45    24    25 1   
    46    24    29 1   
    47    24    52 1   
    48    25    26 1   
    49    25    53 1   
    50    25    54 1   
    51    26    27 1   
    52    26    55 1   
    53    26    56 1   
    54    27    28 1   
    55    27    30 1   
    56    28    29 1   
    57    28    57 1   
    58    28    58 1   
    59    29    59 1   
    60    29    60 1   
    61    30    31 2   
    62    30    32 2   
    63    30    33 1   
    64    33    61 1   
    65    33    62 1   
    66    33    63 1   
@<TRIPOS>SUBSTRUCTURE
     1 3QQ         1 TEMP              0 ****  ****    0 ROOT
