@<TRIPOS>MOLECULE
3QQ
   64    66     1     0     0
SMALL
No Charge or Current Charge


@<TRIPOS>ATOM
      1 C4          -3.4380     1.5660    -0.2560 c3         1 3QQ       0.221800
      2 C6          -3.5040    -0.9190    -0.4620 c3         1 3QQ       0.267100
      3 C11         -5.9880    -1.5850     2.3890 ca         1 3QQ      -0.154500
      4 C7          -4.7980    -1.1830     0.2960 ca         1 3QQ      -0.111300
      5 C8          -6.0180    -1.2740    -0.4050 ca         1 3QQ      -0.067500
      6 C9          -7.2170    -1.5110     0.2900 ca         1 3QQ      -0.154500
      7 C10         -7.1980    -1.6640     1.6840 ca         1 3QQ       0.175000
      8 C12         -4.7870    -1.3470     1.6970 ca         1 3QQ      -0.067500
      9 C3          -4.6630     3.2610     1.2100 c3         1 3QQ      -0.087100
     10 C1          -5.8120     2.3550    -0.8750 c3         1 3QQ      -0.087100
     11 C2          -4.8220     2.0420     0.2730 c3         1 3QQ      -0.066700
     12 N5          -3.4480     0.3880    -1.1690 n3         1 3QQ      -0.753500
     13 F13         -8.3510    -1.8920     2.3510 f          1 3QQ      -0.179000
     14 S14         -2.2270     0.4440    -2.3600 sy         1 3QQ       1.191600
     15 O15         -2.3410    -0.7950    -3.1340 o          1 3QQ      -0.540000
     16 O16         -2.3480     1.7470    -3.0220 o          1 3QQ      -0.540000
     17 C17         -0.7430     0.3970    -1.3970 ca         1 3QQ      -0.443500
     18 C18         -0.1410    -0.8170    -1.0320 ca         1 3QQ       0.063000
     19 C19          1.0310    -0.7450    -0.2740 ca         1 3QQ      -0.263000
     20 C20          1.5310     0.5170     0.0570 ca         1 3QQ       0.670900
     21 N21          0.9690     1.6690    -0.2870 nb         1 3QQ      -0.777000
     22 C22         -0.1630     1.6070    -1.0180 ca         1 3QQ       0.497900
     23 N23          2.6520     0.7360     0.7970 nu         1 3QQ      -0.927100
     24 C24          3.7810    -0.1890     0.9260 c6         1 3QQ       0.245500
     25 C25          4.5130    -0.3360    -0.4280 c6         1 3QQ      -0.128400
     26 C26          5.8010    -1.1880    -0.2820 c6         1 3QQ       0.206800
     27 N27          6.6770    -0.7100     0.8200 n3         1 3QQ      -0.751500
     28 C28          5.9710    -0.5910     2.1220 c6         1 3QQ       0.206800
     29 C29          4.7470     0.3420     2.0060 c6         1 3QQ      -0.128400
     30 S30          7.9580     0.3950     0.4530 s6         1 3QQ       1.211100
     31 O31          8.3220     1.0540     1.7110 o          1 3QQ      -0.529500
     32 O32          8.9730    -0.3720    -0.2750 o          1 3QQ      -0.529500
     33 C33          7.2530     1.6430    -0.6100 c3         1 3QQ      -0.378100
     34 H1          -3.0100     2.4400    -0.7640 h1         1 3QQ       0.044200
     35 H2          -2.7800     1.3650     0.6010 h1         1 3QQ       0.044200
     36 H3          -2.6570    -1.0060     0.2330 h1         1 3QQ       0.054700
     37 H4          -3.4040    -1.7490    -1.1730 h1         1 3QQ       0.054700
     38 H6          -6.0340    -1.1500    -1.4860 ha         1 3QQ       0.122500
     39 H7          -8.1590    -1.5750    -0.2500 ha         1 3QQ       0.133500
     40 H8          -3.8520    -1.2820     2.2500 ha         1 3QQ       0.122500
     41 H9          -4.2370     4.1170     0.6720 hc         1 3QQ       0.036867
     42 H10         -5.6330     3.5620     1.6220 hc         1 3QQ       0.036867
     43 H11         -4.0000     3.0190     2.0500 hc         1 3QQ       0.036867
     44 H12         -5.9800     1.4710    -1.5000 hc         1 3QQ       0.036867
     45 H13         -6.7820     2.6710    -0.4740 hc         1 3QQ       0.036867
     46 H14         -5.4250     3.1570    -1.5150 hc         1 3QQ       0.036867
     47 H15         -5.2640     1.2500     0.8820 hc         1 3QQ       0.057700
     48 H16         -0.5630    -1.7800    -1.3180 ha         1 3QQ       0.132000
     49 H17          1.5340    -1.6490     0.0480 ha         1 3QQ       0.126000
     50 H18         -0.6070     2.5650    -1.2910 h4         1 3QQ       0.041100
     51 H19          2.8320     1.7320     0.8710 hn         1 3QQ       0.505000
     52 H20          3.4260    -1.1810     1.2500 h1         1 3QQ       0.066700
     53 H21          3.8510    -0.8130    -1.1620 hc         1 3QQ       0.059950
     54 H22          4.7490     0.6540    -0.8350 hc         1 3QQ       0.059950
     55 H23          5.4960    -2.2240    -0.0720 h1         1 3QQ       0.076450
     56 H24          6.3410    -1.2190    -1.2400 h1         1 3QQ       0.076450
     57 H25          5.6160    -1.5840     2.4370 h1         1 3QQ       0.076450
     58 H26          6.6360    -0.2430     2.9260 h1         1 3QQ       0.076450
     59 H27          5.0760     1.3620     1.7670 hc         1 3QQ       0.059950
     60 H28          4.2340     0.3930     2.9750 hc         1 3QQ       0.059950
     61 H29          6.4190     2.1060    -0.0750 h1         1 3QQ       0.100033
     62 H30          8.0410     2.3750    -0.8140 h1         1 3QQ       0.100033
     63 H31          6.9270     1.1570    -1.5340 h1         1 3QQ       0.100033
     64 H5          -5.9820    -1.7070     3.4690 ha         1 3QQ       0.133500
@<TRIPOS>BOND
     1     1    11 1   
     2     1    12 1   
     3     1    34 1   
     4     1    35 1   
     5     2     4 1   
     6     2    12 1   
     7     2    36 1   
     8     2    37 1   
     9     3     7 ar  
    10     3     8 ar  
    11     3    64 1   
    12     4     5 ar  
    13     4     8 ar  
    14     5     6 ar  
    15     5    38 1   
    16     6     7 ar  
    17     6    39 1   
    18     7    13 1   
    19     8    40 1   
    20     9    11 1   
    21     9    41 1   
    22     9    42 1   
    23     9    43 1   
    24    10    11 1   
    25    10    44 1   
    26    10    45 1   
    27    10    46 1   
    28    11    47 1   
    29    12    14 1   
    30    14    15 2   
    31    14    16 2   
    32    14    17 1   
    33    17    18 ar  
    34    17    22 ar  
    35    18    19 ar  
    36    18    48 1   
    37    19    20 ar  
    38    19    49 1   
    39    20    21 ar  
    40    20    23 1   
    41    21    22 ar  
    42    22    50 1   
    43    23    24 1   
    44    23    51 1   
    45    24    25 1   
    46    24    29 1   
    47    24    52 1   
    48    25    26 1   
    49    25    53 1   
    50    25    54 1   
    51    26    27 1   
    52    26    55 1   
    53    26    56 1   
    54    27    28 1   
    55    27    30 1   
    56    28    29 1   
    57    28    57 1   
    58    28    58 1   
    59    29    59 1   
    60    29    60 1   
    61    30    31 2   
    62    30    32 2   
    63    30    33 1   
    64    33    61 1   
    65    33    62 1   
    66    33    63 1   
@<TRIPOS>SUBSTRUCTURE
     1 3QQ         1 TEMP              0 ****  ****    0 ROOT
