@<TRIPOS>MOLECULE
3QR
   48    51     1     0     0
SMALL
No Charge or Current Charge


@<TRIPOS>ATOM
      1 C4           5.1900     1.8480     0.5440 c6         1 3QR       0.153300
      2 C5           4.7110     0.4440     1.0480 c6         1 3QR       0.176300
      3 C6           5.2430     0.1020     2.4790 c3         1 3QR       0.169600
      4 C3           4.6390     2.0780    -0.9070 c6         1 3QR       0.145300
      5 CAX         -3.1930    -0.3850    -0.8810 ca         1 3QR       0.018000
      6 CAW         -4.3520     0.2150    -0.3670 ca         1 3QR      -0.245500
      7 SBA         -5.8690     0.5940    -1.1990 sy         1 3QR       1.186300
      8 OBB         -5.6700     1.6780    -2.1670 o          1 3QR      -0.507000
      9 OBC         -6.5960    -0.6340    -1.5350 o          1 3QR      -0.507000
     10 NAZ         -6.5700     1.2460     0.1620 ns         1 3QR      -0.588300
     11 CAY         -5.8040     1.2390     1.2880 c          1 3QR       0.601600
     12 OBD         -6.1640     1.6670     2.3720 o          1 3QR      -0.475000
     13 CAU         -3.3830     0.4270     1.8470 ca         1 3QR      -0.035000
     14 CAT         -2.2040    -0.1750     1.3540 ca         1 3QR      -0.088000
     15 CAB         -2.0990    -0.5820    -0.0040 ca         1 3QR       0.022800
     16 NAA         -0.9220    -1.1740    -0.4740 na         1 3QR       0.199000
     17 CAC          0.3400    -0.7940    -0.1130 cc         1 3QR      -0.170000
     18 NAF         -0.9580    -2.2580    -1.2920 nc         1 3QR      -0.190800
     19 NAE          0.2950    -2.5770    -1.4920 nd         1 3QR      -0.339000
     20 CAD          1.1110    -1.7030    -0.7860 cd         1 3QR       0.204300
     21 CAG          2.6180    -1.8050    -0.8020 c3         1 3QR       0.145300
     22 O1           3.1830    -0.5340    -1.1890 os         1 3QR      -0.500000
     23 C1           4.6250    -0.4620    -1.2190 c6         1 3QR       0.365300
     24 O5           5.1330    -0.6060     0.1280 os         1 3QR      -0.444000
     25 O6           4.7600    -1.1640     2.9780 oh         1 3QR      -0.719000
     26 O4           6.6290     1.9260     0.5160 oh         1 3QR      -0.694000
     27 O3           3.2010     2.1720    -0.9020 oh         1 3QR      -0.659000
     28 C2           5.1090     0.9030    -1.8360 c6         1 3QR       0.120300
     29 O2           6.5550     0.9370    -1.9770 oh         1 3QR      -0.695000
     30 H1           4.7850     2.6250     1.2100 h1         1 3QR       0.048700
     31 H2           3.6140     0.4440     1.1110 h1         1 3QR       0.065700
     32 H3           6.3410     0.0980     2.4490 h1         1 3QR       0.037700
     33 H4           4.9390     0.9110     3.1560 h1         1 3QR       0.037700
     34 H5           5.0580     3.0190    -1.2920 h1         1 3QR       0.047700
     35 H7          -7.5150     1.5800     0.1030 hn         1 3QR       0.360500
     36 H12         -3.4540     0.7330     2.8890 ha         1 3QR       0.148000
     37 H13         -1.3720    -0.3330     2.0360 ha         1 3QR       0.139000
     38 H14          0.5790     0.0370     0.5360 h4         1 3QR       0.187000
     39 H15          2.9570    -2.0960     0.2010 h1         1 3QR       0.064200
     40 H16          2.9200    -2.5940    -1.5040 h1         1 3QR       0.064200
     41 H17          5.0110    -1.2830    -1.8410 h2         1 3QR       0.069700
     42 H18          5.2200    -1.3300     3.8350 ho         1 3QR       0.506000
     43 H19          6.8650     1.5160    -0.3630 ho         1 3QR       0.507000
     44 H20          2.8760     1.2440    -1.0170 ho         1 3QR       0.453000
     45 H21          4.6390     1.0290    -2.8230 h1         1 3QR       0.044700
     46 H22          6.7810     0.4580    -2.8120 ho         1 3QR       0.510000
     47 CAV         -4.4590     0.6190     0.9680 ca         1 3QR      -0.103600
     48 H6          -3.1370    -0.6850    -1.9260 ha         1 3QR       0.164000
@<TRIPOS>BOND
     1     1     2 1   
     2     1     4 1   
     3     1    26 1   
     4     1    30 1   
     5     2     3 1   
     6     2    24 1   
     7     2    31 1   
     8     3    25 1   
     9     3    32 1   
    10     3    33 1   
    11     4    27 1   
    12     4    28 1   
    13     4    34 1   
    14     5     6 ar  
    15     5    15 ar  
    16     5    48 1   
    17     6     7 1   
    18     6    47 ar  
    19     7     8 2   
    20     7     9 2   
    21     7    10 1   
    22    10    11 1   
    23    10    35 1   
    24    11    12 2   
    25    11    47 1   
    26    13    14 ar  
    27    13    36 1   
    28    13    47 ar  
    29    14    15 ar  
    30    14    37 1   
    31    15    16 1   
    32    16    17 1   
    33    16    18 1   
    34    17    20 2   
    35    17    38 1   
    36    18    19 2   
    37    19    20 1   
    38    20    21 1   
    39    21    22 1   
    40    21    39 1   
    41    21    40 1   
    42    22    23 1   
    43    23    24 1   
    44    23    28 1   
    45    23    41 1   
    46    25    42 1   
    47    26    43 1   
    48    27    44 1   
    49    28    29 1   
    50    28    45 1   
    51    29    46 1   
@<TRIPOS>SUBSTRUCTURE
     1 3QR         1 TEMP              0 ****  ****    0 ROOT
