@<TRIPOS>MOLECULE
3QR
   48    51     1     0     0
SMALL
bcc


@<TRIPOS>ATOM
      1 C4           4.7680     1.5570     0.8490 c6         1 3QR       0.130100
      2 C5           4.4160     0.0890     1.0330 c6         1 3QR       0.153100
      3 C6           4.8950    -0.4690     2.3560 c3         1 3QR       0.146400
      4 C3           4.3410     2.0250    -0.5490 c6         1 3QR       0.122100
      5 CAX         -3.0550    -0.7690    -0.4950 ca         1 3QR       0.000000
      6 CAW         -4.1260    -0.0020    -0.1030 ca         1 3QR      -0.245500
      7 SBA         -5.8090    -0.2650    -0.5620 sy         1 3QR       1.327900
      8 OBB         -6.0100    -0.0510    -1.9790 o          1 3QR      -0.577800
      9 OBC         -6.3470    -1.4670     0.0360 o          1 3QR      -0.577800
     10 NAZ         -6.2950     1.0840     0.3110 ns         1 3QR      -0.655300
     11 CAY         -5.3080     1.7840     0.9630 c          1 3QR       0.744100
     12 OBD         -5.4820     2.7720     1.6300 o          1 3QR      -0.550500
     13 CAU         -2.7670     1.5040     1.1580 ca         1 3QR      -0.053000
     14 CAT         -1.6630     0.7480     0.7970 ca         1 3QR      -0.106000
     15 CAB         -1.8070    -0.3680    -0.0240 ca         1 3QR       0.022800
     16 NAA         -0.6700    -1.1060    -0.3940 na         1 3QR       0.148300
     17 CAC          0.6060    -0.6810    -0.5310 cc         1 3QR      -0.202600
     18 NAF         -0.7730    -2.3980    -0.6870 nc         1 3QR      -0.190800
     19 NAE          0.3940    -2.8200    -1.0100 nd         1 3QR      -0.339000
     20 CAD          1.2800    -1.8010    -0.9300 cd         1 3QR       0.269600
     21 CAG          2.7310    -1.9300    -1.2330 c3         1 3QR       0.122100
     22 O1           3.1950    -0.6230    -1.4730 os         1 3QR      -0.453600
     23 C1           4.5610    -0.3980    -1.2890 c6         1 3QR       0.318900
     24 O5           4.9860    -0.7040     0.0010 os         1 3QR      -0.397600
     25 O6           4.3180    -1.7420     2.5360 oh         1 3QR      -0.596800
     26 O4           6.1460     1.7180     1.0650 oh         1 3QR      -0.571800
     27 O3           2.9380     2.1440    -0.5160 oh         1 3QR      -0.596800
     28 C2           4.8170     1.0690    -1.6530 c6         1 3QR       0.097100
     29 O2           6.1910     1.2950    -1.8410 oh         1 3QR      -0.572800
     30 H1           4.1810     2.1330     1.5810 h1         1 3QR       0.048700
     31 H2           3.3210     0.0140     1.0180 h1         1 3QR       0.065700
     32 H3           5.9890    -0.5150     2.3700 h1         1 3QR       0.037700
     33 H4           4.5900     0.2290     3.1480 h1         1 3QR       0.037700
     34 H5           4.8030     3.0050    -0.7490 h1         1 3QR       0.047700
     35 H7          -7.2730     1.3540     0.3430 hn         1 3QR       0.360500
     36 H12         -2.6510     2.3710     1.7940 ha         1 3QR       0.166000
     37 H13         -0.6880     1.0260     1.1740 ha         1 3QR       0.157000
     38 H14          0.9290     0.3340    -0.3740 h4         1 3QR       0.205000
     39 H15          3.2440    -2.3960    -0.3850 h1         1 3QR       0.064200
     40 H16          2.8850    -2.5810    -2.1030 h1         1 3QR       0.064200
     41 H17          5.1520    -1.0530    -1.9450 h2         1 3QR       0.069700
     42 H18          4.7060    -2.1350     3.3220 ho         1 3QR       0.407000
     43 H19          6.3790     2.6360     0.8950 ho         1 3QR       0.408000
     44 H20          2.6240     2.3620    -1.3990 ho         1 3QR       0.414000
     45 H21          4.2570     1.2950    -2.5730 h1         1 3QR       0.044700
     46 H22          6.4640     0.8500    -2.6490 ho         1 3QR       0.411000
     47 CAV         -4.0110     1.1170     0.6980 ca         1 3QR      -0.103600
     48 H6          -3.1660    -1.6280    -1.1420 ha         1 3QR       0.182000
@<TRIPOS>BOND
     1     1     2 1   
     2     1     4 1   
     3     1    26 1   
     4     1    30 1   
     5     2     3 1   
     6     2    24 1   
     7     2    31 1   
     8     3    25 1   
     9     3    32 1   
    10     3    33 1   
    11     4    27 1   
    12     4    28 1   
    13     4    34 1   
    14     5     6 ar  
    15     5    15 ar  
    16     5    48 1   
    17     6     7 1   
    18     6    47 ar  
    19     7     8 2   
    20     7     9 2   
    21     7    10 1   
    22    10    11 1   
    23    10    35 1   
    24    11    12 2   
    25    11    47 1   
    26    13    14 ar  
    27    13    36 1   
    28    13    47 ar  
    29    14    15 ar  
    30    14    37 1   
    31    15    16 1   
    32    16    17 1   
    33    16    18 1   
    34    17    20 2   
    35    17    38 1   
    36    18    19 2   
    37    19    20 1   
    38    20    21 1   
    39    21    22 1   
    40    21    39 1   
    41    21    40 1   
    42    22    23 1   
    43    23    24 1   
    44    23    28 1   
    45    23    41 1   
    46    25    42 1   
    47    26    43 1   
    48    27    44 1   
    49    28    29 1   
    50    28    45 1   
    51    29    46 1   
@<TRIPOS>SUBSTRUCTURE
     1 3QR         1 TEMP              0 ****  ****    0 ROOT
