@<TRIPOS>MOLECULE
3QS
   57    61     1     0     0
SMALL
bcc


@<TRIPOS>ATOM
      1 C4           5.9200     0.1270    -0.0330 c6         1 3QS      -0.114900
      2 C5           5.0640    -0.6480     0.9650 c6         1 3QS       0.225800
      3 C11          2.7790    -3.7030    -0.5070 ca         1 3QS       0.499200
      4 C7           3.1860     0.8560     0.6080 c6         1 3QS       0.225800
      5 C8           3.9930     1.6700    -0.3980 c6         1 3QS      -0.114900
      6 C9           2.9380    -1.5360     0.1110 ca         1 3QS       0.948900
      7 C12          1.4760    -3.5400    -0.9120 ca         1 3QS      -0.499600
      8 C13          0.9520    -2.2440    -0.7480 ca         1 3QS       0.760200
      9 C3           5.4950     1.5870    -0.1230 c6         1 3QS       0.146100
     10 O2           5.8590     2.1990     1.1000 os         1 3QS      -0.413600
     11 N6           3.6560    -0.5170     0.6430 nh         1 3QS      -0.768300
     12 N10          3.5320    -2.7300    -0.0040 nb         1 3QS      -0.806000
     13 N14          1.6740    -1.2680    -0.2330 nb         1 3QS      -0.817000
     14 N15         -0.3370    -1.9950    -1.1100 nu         1 3QS      -0.867600
     15 C16         -1.0090    -0.7670    -1.0250 ca         1 3QS       0.675200
     16 C17         -2.2830    -0.7510    -0.4820 ca         1 3QS      -0.305300
     17 C18         -2.9390     0.4770    -0.4900 ca         1 3QS       0.001800
     18 C19         -2.2990     1.6270    -1.0020 ca         1 3QS      -0.242100
     19 C20         -3.2180     2.7120    -0.8610 cc         1 3QS      -0.168200
     20 C21         -4.3370     2.1880    -0.2890 cd         1 3QS      -0.116100
     21 N22         -4.1730     0.8420    -0.0540 na         1 3QS      -0.053400
     22 C23         -5.1860    -0.0380     0.5010 c5         1 3QS       0.051000
     23 C24         -5.8360     0.5060     1.8000 c5         1 3QS      -0.094900
     24 C25         -7.3260     0.6580     1.4870 c5         1 3QS      -0.081900
     25 C26         -7.5790    -0.4130     0.4290 c5         1 3QS      -0.081900
     26 C27         -6.3530    -0.2980    -0.4710 c5         1 3QS      -0.094900
     27 C28         -1.0100     1.4710    -1.5070 ca         1 3QS       0.478200
     28 N29         -0.3930     0.3060    -1.5340 nb         1 3QS      -0.685000
     29 H1           6.9730     0.0580     0.2500 hc         1 3QS       0.055200
     30 H2           5.8260    -0.3290    -1.0220 hc         1 3QS       0.055200
     31 H3           5.3380    -1.6980     0.9730 h1         1 3QS       0.070200
     32 H4           5.2240    -0.2610     1.9760 h1         1 3QS       0.070200
     33 H5           3.2530    -4.6750    -0.5960 h4         1 3QS       0.013100
     34 H6           3.2840     1.2850     1.6100 h1         1 3QS       0.070200
     35 H7           2.1320     0.8670     0.3470 h1         1 3QS       0.070200
     36 H8           3.8060     1.2880    -1.4050 hc         1 3QS       0.055200
     37 H9           3.6450     2.7070    -0.3970 hc         1 3QS       0.055200
     38 H10          0.8990    -4.3540    -1.3270 ha         1 3QS       0.145000
     39 H11          6.0350     2.0740    -0.9490 h1         1 3QS       0.032700
     40 H12          4.6910     3.9330     1.1150 h1         1 3QS       0.026033
     41 H13          6.2010     3.9610     2.0320 h1         1 3QS       0.026033
     42 H14          6.2390     4.0650     0.2640 h1         1 3QS       0.026033
     43 H15         -0.9140    -2.8060    -1.2700 hn         1 3QS       0.444800
     44 H16         -2.7250    -1.6530    -0.0800 ha         1 3QS       0.140000
     45 H17         -3.0680     3.7410    -1.1450 ha         1 3QS       0.158000
     46 H18         -5.2580     2.6810    -0.0200 h4         1 3QS       0.164000
     47 H19         -4.6820    -0.9770     0.7250 h1         1 3QS       0.067700
     48 H20         -5.6950    -0.2230     2.5990 hc         1 3QS       0.056700
     49 H21         -5.3710     1.4330     2.1360 hc         1 3QS       0.056700
     50 H22         -7.9540     0.5470     2.3710 hc         1 3QS       0.048450
     51 H23         -7.5320     1.6470     1.0680 hc         1 3QS       0.048450
     52 H24         -7.6140    -1.4000     0.8990 hc         1 3QS       0.048450
     53 H25         -8.5150    -0.2760    -0.1140 hc         1 3QS       0.048450
     54 H26         -6.4700     0.5570    -1.1430 hc         1 3QS       0.056700
     55 H27         -6.1810    -1.1760    -1.0950 hc         1 3QS       0.056700
     56 H28         -0.4710     2.3180    -1.9210 h4         1 3QS       0.021100
     57 C1           5.7330     3.5970     1.1170 c3         1 3QS       0.125700
@<TRIPOS>BOND
     1     1     2 1   
     2     1     9 1   
     3     1    29 1   
     4     1    30 1   
     5     2    11 1   
     6     2    31 1   
     7     2    32 1   
     8     3     7 ar  
     9     3    12 ar  
    10     3    33 1   
    11     4     5 1   
    12     4    11 1   
    13     4    34 1   
    14     4    35 1   
    15     5     9 1   
    16     5    36 1   
    17     5    37 1   
    18     6    11 1   
    19     6    12 ar  
    20     6    13 ar  
    21     7     8 ar  
    22     7    38 1   
    23     8    13 ar  
    24     8    14 1   
    25     9    10 1   
    26     9    39 1   
    27    10    57 1   
    28    14    15 1   
    29    14    43 1   
    30    15    16 ar  
    31    15    28 ar  
    32    16    17 ar  
    33    16    44 1   
    34    17    18 ar  
    35    17    21 1   
    36    18    19 1   
    37    18    27 ar  
    38    19    20 2   
    39    19    45 1   
    40    20    21 1   
    41    20    46 1   
    42    21    22 1   
    43    22    23 1   
    44    22    26 1   
    45    22    47 1   
    46    23    24 1   
    47    23    48 1   
    48    23    49 1   
    49    24    25 1   
    50    24    50 1   
    51    24    51 1   
    52    25    26 1   
    53    25    52 1   
    54    25    53 1   
    55    26    54 1   
    56    26    55 1   
    57    27    28 ar  
    58    27    56 1   
    59    40    57 1   
    60    41    57 1   
    61    42    57 1   
@<TRIPOS>SUBSTRUCTURE
     1 3QS         1 TEMP              0 ****  ****    0 ROOT
