@<TRIPOS>MOLECULE
3QS
   57    61     1     0     0
SMALL
No Charge or Current Charge


@<TRIPOS>ATOM
      1 C4           6.5410     0.0620    -0.3240 c6         1 3QS      -0.114900
      2 C5           5.4850    -0.8050     0.4010 c6         1 3QS       0.225800
      3 C11          2.5290    -3.7430    -0.0320 ca         1 3QS       0.170900
      4 C7           3.7430     0.9490    -0.0250 c6         1 3QS       0.225800
      5 C8           4.7940     1.8160    -0.7550 c6         1 3QS      -0.114900
      6 C9           3.0830    -1.5120    -0.0860 ca         1 3QS       0.422900
      7 C12          1.1730    -3.4020    -0.0920 ca         1 3QS      -0.351000
      8 C13          0.8500    -2.0460    -0.1570 ca         1 3QS       0.431900
      9 C3           6.2180     1.5650    -0.2060 c6         1 3QS       0.169300
     10 O2           6.3640     1.9860     1.1690 os         1 3QS      -0.460000
     11 N6           4.0960    -0.5090    -0.0870 nh         1 3QS      -0.768300
     12 N10          3.4870    -2.8000    -0.0310 nb         1 3QS      -0.280000
     13 N14          1.8010    -1.1010    -0.1470 nb         1 3QS      -0.291000
     14 N15         -0.4890    -1.6840    -0.1960 nu         1 3QS      -0.922800
     15 C16         -1.1940    -0.5100    -0.3820 ca         1 3QS       0.609900
     16 C17         -2.5820    -0.4950    -0.1420 ca         1 3QS      -0.222000
     17 C18         -3.2630     0.7090    -0.3610 ca         1 3QS       0.001800
     18 C19         -2.5630     1.7910    -0.7970 ca         1 3QS      -0.176800
     19 C20         -3.4910     2.8700    -0.9370 cc         1 3QS      -0.218200
     20 C21         -4.7370     2.3740    -0.5710 cd         1 3QS      -0.166100
     21 N22         -4.6130     1.0080    -0.2030 na         1 3QS      -0.082700
     22 C23         -5.6940     0.1220     0.2450 c5         1 3QS       0.080300
     23 C24         -6.4780     0.6210     1.4850 c5         1 3QS      -0.094900
     24 C25         -7.6390    -0.4100     1.5720 c5         1 3QS      -0.081900
     25 C26         -7.9060    -0.8340     0.0910 c5         1 3QS      -0.081900
     26 C27         -6.8760    -0.0220    -0.7450 c5         1 3QS      -0.094900
     27 C28         -1.1800     1.7130    -1.0280 ca         1 3QS       0.412900
     28 N29         -0.5020     0.5590    -0.8220 nb         1 3QS      -0.685000
     29 H1           7.5370    -0.1400     0.0910 hc         1 3QS       0.055200
     30 H2           6.5820    -0.2230    -1.3830 hc         1 3QS       0.055200
     31 H3           5.7620    -1.8570     0.2400 h1         1 3QS       0.070200
     32 H4           5.5470    -0.6220     1.4840 h1         1 3QS       0.070200
     33 H5           2.8550    -4.7810     0.0160 h4         1 3QS       0.013100
     34 H6           3.6660     1.2750     1.0230 h1         1 3QS       0.070200
     35 H7           2.7710     1.1540    -0.4980 h1         1 3QS       0.070200
     36 H8           4.7740     1.5740    -1.8270 hc         1 3QS       0.055200
     37 H9           4.5240     2.8760    -0.6850 hc         1 3QS       0.055200
     38 H10          0.4070    -4.1720    -0.0910 ha         1 3QS       0.127000
     39 H11          6.9430     2.1270    -0.8140 h1         1 3QS       0.032700
     40 H12          5.2460     3.7640     1.2610 h1         1 3QS       0.026033
     41 H13          6.4970     3.5890     2.5040 h1         1 3QS       0.026033
     42 H14          6.9640     3.9680     0.8320 h1         1 3QS       0.026033
     43 H15         -1.1070    -2.4720    -0.0410 hn         1 3QS       0.500000
     44 H16         -3.0970    -1.3850     0.2040 ha         1 3QS       0.122000
     45 H17         -3.2820     3.8880    -1.2660 ha         1 3QS       0.208000
     46 H18         -5.6950     2.8860    -0.5450 h4         1 3QS       0.214000
     47 H19         -5.2730    -0.8700     0.4560 h1         1 3QS       0.067700
     48 H20         -5.8620     0.6290     2.3910 hc         1 3QS       0.056700
     49 H21         -6.8600     1.6390     1.3440 hc         1 3QS       0.056700
     50 H22         -7.3490    -1.2790     2.1750 hc         1 3QS       0.048450
     51 H23         -8.5280     0.0210     2.0450 hc         1 3QS       0.048450
     52 H24         -7.7510    -1.9130    -0.0360 hc         1 3QS       0.048450
     53 H25         -8.9350    -0.6240    -0.2210 hc         1 3QS       0.048450
     54 H26         -7.2830     0.9540    -1.0390 hc         1 3QS       0.056700
     55 H27         -6.5870    -0.5410    -1.6660 hc         1 3QS       0.056700
     56 H28         -0.6110     2.5730    -1.3800 h4         1 3QS       0.021100
     57 C1           6.2610     3.3950     1.4500 c3         1 3QS       0.148900
@<TRIPOS>BOND
     1     1     2 1   
     2     1     9 1   
     3     1    29 1   
     4     1    30 1   
     5     2    11 1   
     6     2    31 1   
     7     2    32 1   
     8     3     7 ar  
     9     3    12 ar  
    10     3    33 1   
    11     4     5 1   
    12     4    11 1   
    13     4    34 1   
    14     4    35 1   
    15     5     9 1   
    16     5    36 1   
    17     5    37 1   
    18     6    11 1   
    19     6    12 ar  
    20     6    13 ar  
    21     7     8 ar  
    22     7    38 1   
    23     8    13 ar  
    24     8    14 1   
    25     9    10 1   
    26     9    39 1   
    27    10    57 1   
    28    14    15 1   
    29    14    43 1   
    30    15    16 ar  
    31    15    28 ar  
    32    16    17 ar  
    33    16    44 1   
    34    17    18 ar  
    35    17    21 1   
    36    18    19 1   
    37    18    27 ar  
    38    19    20 2   
    39    19    45 1   
    40    20    21 1   
    41    20    46 1   
    42    21    22 1   
    43    22    23 1   
    44    22    26 1   
    45    22    47 1   
    46    23    24 1   
    47    23    48 1   
    48    23    49 1   
    49    24    25 1   
    50    24    50 1   
    51    24    51 1   
    52    25    26 1   
    53    25    52 1   
    54    25    53 1   
    55    26    54 1   
    56    26    55 1   
    57    27    28 ar  
    58    27    56 1   
    59    40    57 1   
    60    41    57 1   
    61    42    57 1   
@<TRIPOS>SUBSTRUCTURE
     1 3QS         1 TEMP              0 ****  ****    0 ROOT
