@<TRIPOS>MOLECULE
3QT
   42    46     1     0     0
SMALL
No Charge or Current Charge


@<TRIPOS>ATOM
      1 C1          -3.5850    -1.6510    -0.2590 ca         1 3QT       0.269000
      2 N1          -4.3800    -2.5170    -0.9330 nb         1 3QT      -0.661000
      3 C2          -2.2410    -1.9840    -0.0100 ca         1 3QT      -0.087000
      4 N2           0.9010     1.8720     0.3020 na         1 3QT       0.255900
      5 C3          -1.3940    -1.1040     0.6870 ca         1 3QT      -0.087000
      6 N3           1.6660     0.7290     0.4170 nc         1 3QT      -0.502800
      7 C4          -1.8800     0.1310     1.1520 ca         1 3QT      -0.076300
      8 N4           5.3730    -1.7830    -0.6720 nc         1 3QT      -0.521800
      9 C5          -0.9590     1.0890     1.8970 c3         1 3QT       0.052100
     10 N5           4.4590    -2.3280     0.2140 na         1 3QT       0.137800
     11 C6          -0.2810     2.0610     0.9660 cc         1 3QT      -0.137300
     12 N6           0.2410     3.8690    -0.3410 nd         1 3QT      -0.263600
     13 C7           2.7800     0.7700    -0.3320 cd         1 3QT       0.440500
     14 C8           3.6360    -0.3910    -0.2750 cd         1 3QT      -0.291500
     15 C9           4.8510    -0.6040    -0.9550 cd         1 3QT       0.270900
     16 C10          3.3740    -1.5000     0.4840 cc         1 3QT      -0.116000
     17 C12          3.1840     1.8750    -1.1820 cd         1 3QT      -0.161000
     18 C13          2.3750     2.9820    -1.2460 cc         1 3QT      -0.018000
     19 C14          1.1910     2.9620    -0.4680 cc         1 3QT      -0.131000
     20 C15         -0.6790     3.3160     0.5440 cd         1 3QT      -0.047400
     21 C16         -3.2210     0.4800     0.9080 ca         1 3QT      -0.084000
     22 C17         -4.0690    -0.4010     0.2100 ca         1 3QT      -0.082000
     23 C18         -5.4080    -0.0480    -0.0310 ca         1 3QT      -0.058000
     24 C19         -6.2190    -0.9550    -0.7300 ca         1 3QT      -0.169000
     25 C20         -5.6690    -2.1710    -1.1610 ca         1 3QT       0.352900
     26 H2          -1.8520    -2.9350    -0.3630 ha         1 3QT       0.129000
     27 H3          -0.3580    -1.3840     0.8620 ha         1 3QT       0.120000
     28 H5          -1.5310     1.6460     2.6480 hc         1 3QT       0.063700
     29 H5A         -0.2080     0.5260     2.4640 hc         1 3QT       0.063700
     30 H9           5.3740     0.0490    -1.6430 h4         1 3QT       0.041100
     31 H10          2.5630    -1.7630     1.1540 h4         1 3QT       0.166000
     32 H11          5.6320    -3.6740     1.3330 h1         1 3QT       0.060700
     33 H11A         3.8660    -3.9350     1.4470 h1         1 3QT       0.060700
     34 H11B         4.7420    -4.4000    -0.0410 h1         1 3QT       0.060700
     35 H12          4.0970     1.8450    -1.7600 ha         1 3QT       0.134000
     36 H13          2.6160     3.8430    -1.8630 ha         1 3QT       0.147000
     37 H15         -1.5810     3.8520     0.8280 h4         1 3QT       0.227000
     38 H16         -3.6020     1.4360     1.2590 ha         1 3QT       0.114000
     39 H18         -5.8110     0.9020     0.3150 ha         1 3QT       0.119000
     40 H19         -7.2600    -0.7240    -0.9380 ha         1 3QT       0.123000
     41 H20         -6.2760    -2.8930    -1.7060 h4         1 3QT       0.018100
     42 C11          4.6890    -3.6670     0.7730 c3         1 3QT       0.069900
@<TRIPOS>BOND
     1     1     2 ar  
     2     1     3 ar  
     3     1    22 ar  
     4     2    25 ar  
     5     3     5 ar  
     6     3    26 1   
     7     4     6 1   
     8     4    11 1   
     9     4    19 1   
    10     5     7 ar  
    11     5    27 1   
    12     6    13 2   
    13     7     9 1   
    14     7    21 ar  
    15     8    10 1   
    16     8    15 2   
    17     9    11 1   
    18     9    28 1   
    19     9    29 1   
    20    10    16 1   
    21    10    42 1   
    22    11    20 2   
    23    12    19 2   
    24    12    20 1   
    25    13    14 1   
    26    13    17 1   
    27    14    15 1   
    28    14    16 2   
    29    15    30 1   
    30    16    31 1   
    31    17    18 2   
    32    17    35 1   
    33    18    19 1   
    34    18    36 1   
    35    20    37 1   
    36    21    22 ar  
    37    21    38 1   
    38    22    23 ar  
    39    23    24 ar  
    40    23    39 1   
    41    24    25 ar  
    42    24    40 1   
    43    25    41 1   
    44    32    42 1   
    45    33    42 1   
    46    34    42 1   
@<TRIPOS>SUBSTRUCTURE
     1 3QT         1 TEMP              0 ****  ****    0 ROOT
