@<TRIPOS>MOLECULE
3QT
   42    46     1     0     0
SMALL
bcc


@<TRIPOS>ATOM
      1 C1          -3.2590    -1.6450    -0.2570 ca         1 3QT       0.399600
      2 N1          -3.9510    -2.5690    -0.9660 nb         1 3QT      -0.661000
      3 C2          -1.9070    -1.9000     0.0660 ca         1 3QT      -0.170300
      4 N2           0.8460     1.9730     0.3570 na         1 3QT       0.205200
      5 C3          -1.1800    -0.9890     0.7810 ca         1 3QT      -0.105000
      6 N3           1.5420     0.8430     0.3830 nc         1 3QT      -0.502800
      7 C4          -1.7530     0.2290     1.2170 ca         1 3QT      -0.076300
      8 N4           4.9290    -1.9980    -0.7910 nc         1 3QT      -0.521800
      9 C5          -0.9260     1.2380     1.9810 c3         1 3QT       0.052100
     10 N5           4.1020    -2.4300     0.1590 na         1 3QT       0.116400
     11 C6          -0.2780     2.2320     1.0830 cc         1 3QT      -0.137300
     12 N6           0.2500     4.0490    -0.1640 nd         1 3QT      -0.263600
     13 C7           2.5990     0.7970    -0.3820 cd         1 3QT       0.505800
     14 C8           3.3710    -0.4340    -0.3480 cd         1 3QT      -0.356800
     15 C9           4.5020    -0.7930    -1.1080 cd         1 3QT       0.336200
     16 C10          3.1550    -1.5370     0.4610 cc         1 3QT      -0.083300
     17 C12          3.0010     1.8890    -1.2110 cd         1 3QT      -0.244300
     18 C13          2.2740     3.0370    -1.2130 cc         1 3QT      -0.036000
     19 C14          1.1360     3.0990    -0.3890 cc         1 3QT      -0.080300
     20 C15         -0.6140     3.5210     0.7350 cd         1 3QT       0.002600
     21 C16         -3.0650     0.4900     0.9170 ca         1 3QT      -0.102000
     22 C17         -3.8420    -0.4310     0.1810 ca         1 3QT      -0.147300
     23 C18         -5.1970    -0.2010    -0.1460 ca         1 3QT      -0.076000
     24 C19         -5.8780    -1.1430    -0.8630 ca         1 3QT      -0.252300
     25 C20         -5.2010    -2.3190    -1.2510 ca         1 3QT       0.418200
     26 H2          -1.4630    -2.8310    -0.2640 ha         1 3QT       0.147000
     27 H3          -0.1460    -1.1960     1.0230 ha         1 3QT       0.138000
     28 H5          -1.5650     1.7830     2.6770 hc         1 3QT       0.063700
     29 H5A         -0.1710     0.7260     2.5820 hc         1 3QT       0.063700
     30 H9           5.0110    -0.2210    -1.8680 h4         1 3QT       0.041100
     31 H10          2.4080    -1.7270     1.2140 h4         1 3QT       0.184000
     32 H11          5.2750    -3.8010     1.2060 h1         1 3QT       0.060700
     33 H11A         3.5320    -3.8950     1.5040 h1         1 3QT       0.060700
     34 H11B         4.2000    -4.5070    -0.0180 h1         1 3QT       0.060700
     35 H12          3.8820     1.7990    -1.8290 ha         1 3QT       0.152000
     36 H13          2.5450     3.8880    -1.8220 ha         1 3QT       0.165000
     37 H15         -1.4560     4.0830     1.1110 h4         1 3QT       0.177000
     38 H16         -3.5280     1.4140     1.2470 ha         1 3QT       0.132000
     39 H18         -5.6790     0.7160     0.1730 ha         1 3QT       0.137000
     40 H19         -6.9150    -1.0050    -1.1360 ha         1 3QT       0.141000
     41 H20         -5.7320    -3.0740    -1.8210 h4         1 3QT       0.018100
     42 C11          4.2920    -3.7360     0.7440 c3         1 3QT       0.040600
@<TRIPOS>BOND
     1     1     2 ar  
     2     1     3 ar  
     3     1    22 ar  
     4     2    25 ar  
     5     3     5 ar  
     6     3    26 1   
     7     4     6 1   
     8     4    11 1   
     9     4    19 1   
    10     5     7 ar  
    11     5    27 1   
    12     6    13 2   
    13     7     9 1   
    14     7    21 ar  
    15     8    10 1   
    16     8    15 2   
    17     9    11 1   
    18     9    28 1   
    19     9    29 1   
    20    10    16 1   
    21    10    42 1   
    22    11    20 2   
    23    12    19 2   
    24    12    20 1   
    25    13    14 1   
    26    13    17 1   
    27    14    15 1   
    28    14    16 2   
    29    15    30 1   
    30    16    31 1   
    31    17    18 2   
    32    17    35 1   
    33    18    19 1   
    34    18    36 1   
    35    20    37 1   
    36    21    22 ar  
    37    21    38 1   
    38    22    23 ar  
    39    23    24 ar  
    40    23    39 1   
    41    24    25 ar  
    42    24    40 1   
    43    25    41 1   
    44    32    42 1   
    45    33    42 1   
    46    34    42 1   
@<TRIPOS>SUBSTRUCTURE
     1 3QT         1 TEMP              0 ****  ****    0 ROOT
