@<TRIPOS>MOLECULE
3QU
   26    27     1     0     0
SMALL
No Charge or Current Charge


@<TRIPOS>ATOM
      1 OAA         -4.4940    -1.0770    -0.8060 o          1 3QU      -0.398500
      2 OAB         -4.4940     1.1050    -0.7830 o          1 3QU      -0.398500
      3 CAC          3.9730     1.1780    -0.9080 ca         1 3QU       0.339400
      4 CAD          3.9720    -1.1380    -0.9360 ca         1 3QU       0.339400
      5 CAE          3.0020     1.2110     0.1070 ca         1 3QU      -0.159500
      6 CAF          3.0010    -1.1940     0.0790 ca         1 3QU      -0.159500
      7 CAG         -0.6190     1.2120     0.8610 ca         1 3QU      -0.118000
      8 CAH         -0.6180    -1.2160     0.8350 ca         1 3QU      -0.118000
      9 CAI         -1.9130     1.2220     0.3120 ca         1 3QU      -0.042000
     10 CAJ         -1.9120    -1.2150     0.2870 ca         1 3QU      -0.042000
     11 NAL          4.4580     0.0260    -1.4280 nb         1 3QU      -0.659000
     12 CAM          2.4990     0.0020     0.6210 ca         1 3QU      -0.044300
     13 CAN          0.0350    -0.0050     1.1270 ca         1 3QU      -0.032300
     14 CAO         -2.5750     0.0060     0.0190 ca         1 3QU      -0.179200
     15 NAP         -3.9550     0.0120    -0.5660 no         1 3QU       0.694200
     16 HAD          4.3750    -2.0530    -1.3690 h4         1 3QU       0.021100
     17 HAE          2.6480     2.1670     0.4830 ha         1 3QU       0.121000
     18 HAF          2.6480    -2.1590     0.4320 ha         1 3QU       0.121000
     19 HAG         -0.1230     2.1550     1.0770 ha         1 3QU       0.126000
     20 HAH         -0.1220    -2.1630     1.0320 ha         1 3QU       0.126000
     21 HAI         -2.3930     2.1800     0.1170 ha         1 3QU       0.152000
     22 HAJ         -2.3920    -2.1690     0.0720 ha         1 3QU       0.152000
     23 CAK          1.4400    -0.0100     1.7140 c3         1 3QU       0.003200
     24 HAC          4.3750     2.1030    -1.3200 h4         1 3QU       0.021100
     25 HAK          1.5750    -0.8890     2.3560 hc         1 3QU       0.065200
     26 HAKA         1.5740     0.8540     2.3760 hc         1 3QU       0.065200
@<TRIPOS>BOND
     1     1    15 1   
     2     2    15 1   
     3     3     5 ar  
     4     3    11 ar  
     5     3    24 1   
     6     4     6 ar  
     7     4    11 ar  
     8     4    16 1   
     9     5    12 ar  
    10     5    17 1   
    11     6    12 ar  
    12     6    18 1   
    13     7     9 ar  
    14     7    13 ar  
    15     7    19 1   
    16     8    10 ar  
    17     8    13 ar  
    18     8    20 1   
    19     9    14 ar  
    20     9    21 1   
    21    10    14 ar  
    22    10    22 1   
    23    12    23 1   
    24    13    23 1   
    25    14    15 1   
    26    23    25 1   
    27    23    26 1   
@<TRIPOS>SUBSTRUCTURE
     1 3QU         1 TEMP              0 ****  ****    0 ROOT
