@<TRIPOS>MOLECULE
3QU
   26    27     1     0     0
SMALL
abcg2


@<TRIPOS>ATOM
      1 OAA         -4.2950    -1.0340    -0.8850 o          1 3QU      -0.398500
      2 OAB         -4.3300     1.0960    -0.7740 o          1 3QU      -0.398500
      3 CAC          3.8250     1.1390    -0.9560 ca         1 3QU       0.339400
      4 CAD          3.8800    -1.1280    -0.9220 ca         1 3QU       0.339400
      5 CAE          2.9130     1.1860     0.0860 ca         1 3QU      -0.159500
      6 CAF          2.9680    -1.1870     0.1210 ca         1 3QU      -0.159500
      7 CAG         -0.6070     1.2020     0.9070 ca         1 3QU      -0.118000
      8 CAH         -0.5870    -1.1950     0.8220 ca         1 3QU      -0.118000
      9 CAI         -1.8650     1.2220     0.3320 ca         1 3QU      -0.042000
     10 CAJ         -1.8440    -1.1970     0.2450 ca         1 3QU      -0.042000
     11 NAL          4.3070     0.0080    -1.4610 nb         1 3QU      -0.659000
     12 CAM          2.4630    -0.0040     0.6460 ca         1 3QU      -0.044300
     13 CAN          0.0470    -0.0020     1.1600 ca         1 3QU      -0.032300
     14 CAO         -2.4710     0.0180     0.0050 ca         1 3QU      -0.179200
     15 NAP         -3.7940     0.0270    -0.5950 no         1 3QU       0.694200
     16 HAD          4.2820    -2.0450    -1.3390 h4         1 3QU       0.021100
     17 HAE          2.5650     2.1440     0.4530 ha         1 3QU       0.121000
     18 HAF          2.6640    -2.1490     0.5170 ha         1 3QU       0.121000
     19 HAG         -0.1340     2.1390     1.1670 ha         1 3QU       0.126000
     20 HAH         -0.0970    -2.1410     1.0160 ha         1 3QU       0.126000
     21 HAI         -2.3570     2.1660     0.1480 ha         1 3QU       0.152000
     22 HAJ         -2.3190    -2.1340    -0.0050 ha         1 3QU       0.152000
     23 CAK          1.4340    -0.0110     1.7470 c3         1 3QU       0.003200
     24 HAC          4.1830     2.0600    -1.4020 h4         1 3QU       0.021100
     25 HAK          1.5650    -0.8960     2.3710 hc         1 3QU       0.065200
     26 HAKA         1.5700     0.8610     2.3880 hc         1 3QU       0.065200
@<TRIPOS>BOND
     1     1    15 1   
     2     2    15 1   
     3     3     5 ar  
     4     3    11 ar  
     5     3    24 1   
     6     4     6 ar  
     7     4    11 ar  
     8     4    16 1   
     9     5    12 ar  
    10     5    17 1   
    11     6    12 ar  
    12     6    18 1   
    13     7     9 ar  
    14     7    13 ar  
    15     7    19 1   
    16     8    10 ar  
    17     8    13 ar  
    18     8    20 1   
    19     9    14 ar  
    20     9    21 1   
    21    10    14 ar  
    22    10    22 1   
    23    12    23 1   
    24    13    23 1   
    25    14    15 1   
    26    23    25 1   
    27    23    26 1   
@<TRIPOS>SUBSTRUCTURE
     1 3QU         1 TEMP              0 ****  ****    0 ROOT
