@<TRIPOS>MOLECULE
3QV
   19    20     1     0     0
SMALL
No Charge or Current Charge


@<TRIPOS>ATOM
      1 C1          -3.0860     0.0510    -0.1620 ca         1 3QV       0.214100
      2 N1           4.4710     0.9140     0.1220 n1         1 3QV      -0.432000
      3 O1          -4.3860    -0.3490    -0.2080 oh         1 3QV      -0.517100
      4 C2          -2.7810     1.4190    -0.1680 ca         1 3QV      -0.177000
      5 O2           2.4380    -2.0030     0.0800 o          1 3QV      -0.452000
      6 C3          -1.4420     1.8450    -0.1210 ca         1 3QV      -0.002000
      7 O3           0.2690    -1.4110    -0.0120 os         1 3QV      -0.338200
      8 C4          -0.4040     0.8940    -0.0680 ca         1 3QV      -0.219800
      9 C5           0.9870     1.3270    -0.0190 cc         1 3QV       0.001800
     10 C6           1.9520     0.3400     0.0310 cd         1 3QV      -0.145900
     11 C7           3.3380     0.6370     0.0820 ch         1 3QV       0.297700
     12 C8           1.6020    -1.1080     0.0360 c          1 3QV       0.694300
     13 C9          -0.7230    -0.4730    -0.0630 ca         1 3QV       0.237100
     14 C10         -2.0570    -0.8970    -0.1100 ca         1 3QV      -0.255000
     15 HO1         -4.4060    -1.3290    -0.1960 ho         1 3QV       0.480000
     16 H2          -3.5820     2.1520    -0.2080 ha         1 3QV       0.142000
     17 H3          -1.2160     2.9100    -0.1250 ha         1 3QV       0.126000
     18 H5           1.2670     2.3790    -0.0220 ha         1 3QV       0.202000
     19 H10         -2.2790    -1.9610    -0.1050 ha         1 3QV       0.144000
@<TRIPOS>BOND
     1     1     3 1   
     2     1     4 ar  
     3     1    14 ar  
     4     2    11 3   
     5     3    15 1   
     6     4     6 ar  
     7     4    16 1   
     8     5    12 2   
     9     6     8 ar  
    10     6    17 1   
    11     7    12 1   
    12     7    13 1   
    13     8     9 1   
    14     8    13 ar  
    15     9    10 2   
    16     9    18 1   
    17    10    11 1   
    18    10    12 1   
    19    13    14 ar  
    20    14    19 1   
@<TRIPOS>SUBSTRUCTURE
     1 3QV         1 TEMP              0 ****  ****    0 ROOT
