@<TRIPOS>MOLECULE
3QV
   19    20     1     0     0
SMALL
bcc


@<TRIPOS>ATOM
      1 C1          -3.0430     0.0340    -0.1580 ca         1 3QV       0.214100
      2 N1           4.4270     0.9450     0.1300 n1         1 3QV      -0.342800
      3 O1          -4.3270    -0.3090    -0.1940 oh         1 3QV      -0.478100
      4 C2          -2.7570     1.4110    -0.1660 ca         1 3QV      -0.195000
      5 O2           2.3790    -2.0000     0.0810 o          1 3QV      -0.527500
      6 C3          -1.4560     1.8310    -0.1260 ca         1 3QV      -0.020000
      7 O3           0.2650    -1.3860    -0.0170 os         1 3QV      -0.338200
      8 C4          -0.3970     0.9100    -0.0750 ca         1 3QV      -0.219800
      9 C5           0.9700     1.2740    -0.0250 cc         1 3QV       0.051800
     10 C6           1.9350     0.3210     0.0300 cd         1 3QV      -0.145900
     11 C7           3.3130     0.6540     0.0850 ch         1 3QV       0.208500
     12 C8           1.5970    -1.1000     0.0360 c          1 3QV       0.769800
     13 C9          -0.7070    -0.4550    -0.0670 ca         1 3QV       0.237100
     14 C10         -2.0150    -0.9010    -0.1090 ca         1 3QV      -0.273000
     15 HO1         -4.4460    -1.2630    -0.2100 ho         1 3QV       0.441000
     16 H2          -3.5690     2.1230    -0.1920 ha         1 3QV       0.160000
     17 H3          -1.2360     2.8910    -0.1310 ha         1 3QV       0.144000
     18 H5           1.2420     2.3220    -0.0280 ha         1 3QV       0.152000
     19 H10         -2.2140    -1.9660    -0.0990 ha         1 3QV       0.162000
@<TRIPOS>BOND
     1     1     3 1   
     2     1     4 ar  
     3     1    14 ar  
     4     2    11 3   
     5     3    15 1   
     6     4     6 ar  
     7     4    16 1   
     8     5    12 2   
     9     6     8 ar  
    10     6    17 1   
    11     7    12 1   
    12     7    13 1   
    13     8     9 1   
    14     8    13 ar  
    15     9    10 2   
    16     9    18 1   
    17    10    11 1   
    18    10    12 1   
    19    13    14 ar  
    20    14    19 1   
@<TRIPOS>SUBSTRUCTURE
     1 3QV         1 TEMP              0 ****  ****    0 ROOT
