@<TRIPOS>MOLECULE
3QW
   60    64     1     0     0
SMALL
No Charge or Current Charge


@<TRIPOS>ATOM
      1 C14          6.1140    -2.8040     0.5780 cc         1 3QW      -0.145000
      2 C5           2.8290     0.5100     0.1840 ca         1 3QW       0.004800
      3 C6           1.9080     1.5270    -0.1070 ca         1 3QW      -0.210000
      4 C11          3.4660    -1.5580     0.8380 cc         1 3QW      -0.212200
      5 C7           0.5580     1.3040     0.2260 ca         1 3QW       0.601900
      6 C9           1.0050    -0.8110     1.0490 ca         1 3QW       0.409900
      7 C10          2.3640    -0.6480     0.7380 ca         1 3QW      -0.173800
      8 C12          4.5640    -0.8960     0.3030 cd         1 3QW       0.033700
      9 C13          5.8480    -1.5390     0.1310 cd         1 3QW      -0.169800
     10 C3           5.1050     2.1480    -1.6540 c3         1 3QW      -0.106100
     11 C1           4.8320     2.7370     0.8370 c3         1 3QW      -0.106100
     12 N4           4.2060     0.4370    -0.0460 na         1 3QW      -0.080700
     13 N8           0.1080     0.1740     0.8030 nb         1 3QW      -0.683000
     14 N15          7.4350    -3.0100     0.1830 na         1 3QW      -0.000200
     15 N17          7.9890    -1.9370    -0.5060 nc         1 3QW      -0.517800
     16 C18          7.0030    -1.0580    -0.5290 cd         1 3QW       0.252900
     17 N19         -0.3740     2.2960    -0.0160 nu         1 3QW      -0.925800
     18 C20         -1.7600     2.3780    -0.0220 ca         1 3QW       0.430900
     19 C21         -2.3550     3.6350    -0.1390 ca         1 3QW      -0.342000
     20 C22         -3.7540     3.6870    -0.1670 ca         1 3QW       0.166900
     21 N23         -4.4970     2.5700    -0.0900 nb         1 3QW      -0.272000
     22 C24         -3.8370     1.3960     0.0150 ca         1 3QW       0.410900
     23 N25         -2.4960     1.2590     0.0440 nb         1 3QW      -0.287000
     24 N26         -4.6190     0.2050     0.0860 nh         1 3QW      -0.750300
     25 C27         -4.0010    -1.1080     0.4680 c6         1 3QW       0.214300
     26 C28         -4.7200    -2.2910    -0.2150 c6         1 3QW      -0.123400
     27 C29         -6.2300    -2.2810     0.0860 c6         1 3QW       0.170300
     28 C30         -6.8300    -0.9250    -0.3570 c6         1 3QW      -0.123400
     29 C31         -6.1000     0.2590     0.3170 c6         1 3QW       0.214300
     30 O32         -6.8550    -3.3950    -0.5870 os         1 3QW      -0.455000
     31 C33         -8.2430    -3.6510    -0.3020 c3         1 3QW       0.148900
     32 H1           5.5290    -3.5390     1.1170 h4         1 3QW       0.162000
     33 H2           2.2090     2.4520    -0.5860 ha         1 3QW       0.123000
     34 H3           3.4370    -2.5880     1.1850 ha         1 3QW       0.207000
     35 H4           0.6260    -1.7340     1.4860 h4         1 3QW       0.022100
     36 H5           5.8380     2.9560    -1.7620 hc         1 3QW       0.046533
     37 H6           5.3790     1.3460    -2.3500 hc         1 3QW       0.046533
     38 H7           4.1220     2.5340    -1.9470 hc         1 3QW       0.046533
     39 H8           3.8890     3.2630     0.6570 hc         1 3QW       0.046533
     40 H9           4.8080     2.3190     1.8500 hc         1 3QW       0.046533
     41 H10          5.6370     3.4810     0.7990 hc         1 3QW       0.046533
     42 H11          6.1050     1.2850     0.0240 h1         1 3QW       0.070700
     43 H12          7.9780    -3.8560     0.3560 hn         1 3QW       0.375000
     44 H13          7.1590    -0.1210    -1.0460 h4         1 3QW       0.042100
     45 H14          0.0670     3.1770    -0.2550 hn         1 3QW       0.503000
     46 H15         -1.7640     4.5430    -0.2030 ha         1 3QW       0.127000
     47 H16         -4.2870     4.6330    -0.2530 h4         1 3QW       0.014100
     48 H17         -2.9410    -1.1630     0.1810 h1         1 3QW       0.068200
     49 H18         -4.0440    -1.2380     1.5600 h1         1 3QW       0.068200
     50 H19         -4.5550    -2.2420    -1.3000 hc         1 3QW       0.058700
     51 H20         -4.2780    -3.2360     0.1290 hc         1 3QW       0.058700
     52 H21         -6.3750    -2.4040     1.1690 h1         1 3QW       0.025700
     53 H22         -6.7590    -0.8250    -1.4480 hc         1 3QW       0.058700
     54 H23         -7.8950    -0.8710    -0.1000 hc         1 3QW       0.058700
     55 H24         -6.3090     0.2450     1.3980 h1         1 3QW       0.068200
     56 H25         -6.5440     1.1820    -0.0820 h1         1 3QW       0.068200
     57 H26         -8.5650    -4.5790    -0.7920 h1         1 3QW       0.026367
     58 H27         -8.4050    -3.7620     0.7780 h1         1 3QW       0.026367
     59 H28         -8.8820    -2.8390    -0.6710 h1         1 3QW       0.026367
     60 C2           5.0890     1.6200    -0.2030 c3         1 3QW       0.088300
@<TRIPOS>BOND
     1     1     9 2   
     2     1    14 1   
     3     1    32 1   
     4     2     3 ar  
     5     2     7 ar  
     6     2    12 1   
     7     3     5 ar  
     8     3    33 1   
     9     4     7 1   
    10     4     8 2   
    11     4    34 1   
    12     5    13 ar  
    13     5    17 1   
    14     6     7 ar  
    15     6    13 ar  
    16     6    35 1   
    17     8     9 1   
    18     8    12 1   
    19     9    16 1   
    20    10    36 1   
    21    10    37 1   
    22    10    38 1   
    23    10    60 1   
    24    11    39 1   
    25    11    40 1   
    26    11    41 1   
    27    11    60 1   
    28    12    60 1   
    29    14    15 1   
    30    14    43 1   
    31    15    16 2   
    32    16    44 1   
    33    17    18 1   
    34    17    45 1   
    35    18    19 ar  
    36    18    23 ar  
    37    19    20 ar  
    38    19    46 1   
    39    20    21 ar  
    40    20    47 1   
    41    21    22 ar  
    42    22    23 ar  
    43    22    24 1   
    44    24    25 1   
    45    24    29 1   
    46    25    26 1   
    47    25    48 1   
    48    25    49 1   
    49    26    27 1   
    50    26    50 1   
    51    26    51 1   
    52    27    28 1   
    53    27    30 1   
    54    27    52 1   
    55    28    29 1   
    56    28    53 1   
    57    28    54 1   
    58    29    55 1   
    59    29    56 1   
    60    30    31 1   
    61    31    57 1   
    62    31    58 1   
    63    31    59 1   
    64    42    60 1   
@<TRIPOS>SUBSTRUCTURE
     1 3QW         1 TEMP              0 ****  ****    0 ROOT
