@<TRIPOS>MOLECULE
3QW
   60    64     1     0     0
SMALL
bcc


@<TRIPOS>ATOM
      1 C14          6.1490    -2.0440     1.2240 cc         1 3QW      -0.112300
      2 C5           2.2890     0.5780     0.6610 ca         1 3QW       0.004800
      3 C6           1.3790     1.5850     0.3400 ca         1 3QW      -0.293300
      4 C11          3.1400    -1.1570     1.8650 cc         1 3QW      -0.162200
      5 C7           0.3290     1.7750     1.2230 ca         1 3QW       0.667200
      6 C9           0.9820     0.0860     2.6170 ca         1 3QW       0.475200
      7 C10          2.0860    -0.2040     1.8180 ca         1 3QW      -0.239100
      8 C12          3.9270    -0.9320     0.7710 cd         1 3QW       0.033700
      9 C13          5.1170    -1.6720     0.3860 cd         1 3QW      -0.235100
     10 C3           3.2120     0.5530    -2.3870 c3         1 3QW      -0.106100
     11 C1           4.4220     2.1960    -0.8690 c3         1 3QW      -0.106100
     12 N4           3.4150     0.1290     0.0370 na         1 3QW      -0.051400
     13 N8           0.1400     1.0600     2.3360 nb         1 3QW      -0.683000
     14 N15          6.9950    -2.7700     0.4830 na         1 3QW      -0.000600
     15 N17          6.6050    -2.9080    -0.7780 nc         1 3QW      -0.517800
     16 C18          5.4660    -2.2480    -0.8560 cd         1 3QW       0.318200
     17 N19         -0.5790     2.8170     0.9780 nu         1 3QW      -0.870600
     18 C20         -1.9320     2.6920     0.9480 ca         1 3QW       0.759200
     19 C21         -2.7410     3.8300     0.7690 ca         1 3QW      -0.490600
     20 C22         -4.0940     3.5930     0.7410 ca         1 3QW       0.495200
     21 N23         -4.6450     2.3900     0.8760 nb         1 3QW      -0.798000
     22 C24         -3.7880     1.3780     1.0400 ca         1 3QW       0.936900
     23 N25         -2.4590     1.4860     1.0670 nb         1 3QW      -0.813000
     24 N26         -4.3030     0.1290     1.2160 nh         1 3QW      -0.750300
     25 C27         -3.4490    -1.0400     1.1010 c6         1 3QW       0.214300
     26 C28         -3.4590    -1.5730    -0.3290 c6         1 3QW      -0.123400
     27 C29         -4.8820    -1.8800    -0.7760 c6         1 3QW       0.147100
     28 C30         -5.7870    -0.6650    -0.5680 c6         1 3QW      -0.123400
     29 C31         -5.6820    -0.1610     0.8710 c6         1 3QW       0.214300
     30 O32         -4.8290    -2.3050    -2.1200 os         1 3QW      -0.408600
     31 C33         -6.0120    -2.9000    -2.5920 c3         1 3QW       0.125700
     32 H1           6.3290    -1.8330     2.2650 h4         1 3QW       0.180000
     33 H2           1.4490     2.1950    -0.5490 ha         1 3QW       0.141000
     34 H3           3.2860    -1.9390     2.5940 ha         1 3QW       0.157000
     35 H4           0.7900    -0.4820     3.5220 h4         1 3QW       0.022100
     36 H5           3.7560     0.9360    -3.2510 hc         1 3QW       0.046533
     37 H6           3.0020    -0.5020    -2.5650 hc         1 3QW       0.046533
     38 H7           2.2610     1.0830    -2.3370 hc         1 3QW       0.046533
     39 H8           3.5540     2.8460    -0.7830 hc         1 3QW       0.046533
     40 H9           5.0140     2.2880     0.0420 hc         1 3QW       0.046533
     41 H10          5.0260     2.5660    -1.6980 hc         1 3QW       0.046533
     42 H11          4.9870     0.2020    -1.2720 h1         1 3QW       0.070700
     43 H12          7.8590    -3.1880     0.7890 hn         1 3QW       0.324700
     44 H13          4.9180    -2.2160    -1.7860 h4         1 3QW       0.042100
     45 H14         -0.1970     3.6900     0.6500 hn         1 3QW       0.447800
     46 H15         -2.3310     4.8240     0.6580 ha         1 3QW       0.145000
     47 H16         -4.7830     4.4190     0.6030 h4         1 3QW       0.014100
     48 H17         -2.4400    -0.7910     1.4150 h1         1 3QW       0.068200
     49 H18         -3.8320    -1.8030     1.7850 h1         1 3QW       0.068200
     50 H19         -3.0120    -0.8270    -0.9930 hc         1 3QW       0.058700
     51 H20         -2.8430    -2.4740    -0.3880 hc         1 3QW       0.058700
     52 H21         -5.2680    -2.7000    -0.1470 h1         1 3QW       0.025700
     53 H22         -5.4970     0.1340    -1.2580 hc         1 3QW       0.058700
     54 H23         -6.8300    -0.9120    -0.7790 hc         1 3QW       0.058700
     55 H24         -6.0450    -0.9300     1.5590 h1         1 3QW       0.068200
     56 H25         -6.2950     0.7230     1.0160 h1         1 3QW       0.068200
     57 H26         -5.8090    -3.2980    -3.5860 h1         1 3QW       0.026367
     58 H27         -6.3380    -3.7280    -1.9520 h1         1 3QW       0.026367
     59 H28         -6.8440    -2.1930    -2.6760 h1         1 3QW       0.026367
     60 C2           4.0510     0.7410    -1.1290 c3         1 3QW       0.059000
@<TRIPOS>BOND
     1     1     9 2   
     2     1    14 1   
     3     1    32 1   
     4     2     3 ar  
     5     2     7 ar  
     6     2    12 1   
     7     3     5 ar  
     8     3    33 1   
     9     4     7 1   
    10     4     8 2   
    11     4    34 1   
    12     5    13 ar  
    13     5    17 1   
    14     6     7 ar  
    15     6    13 ar  
    16     6    35 1   
    17     8     9 1   
    18     8    12 1   
    19     9    16 1   
    20    10    36 1   
    21    10    37 1   
    22    10    38 1   
    23    10    60 1   
    24    11    39 1   
    25    11    40 1   
    26    11    41 1   
    27    11    60 1   
    28    12    60 1   
    29    14    15 1   
    30    14    43 1   
    31    15    16 2   
    32    16    44 1   
    33    17    18 1   
    34    17    45 1   
    35    18    19 ar  
    36    18    23 ar  
    37    19    20 ar  
    38    19    46 1   
    39    20    21 ar  
    40    20    47 1   
    41    21    22 ar  
    42    22    23 ar  
    43    22    24 1   
    44    24    25 1   
    45    24    29 1   
    46    25    26 1   
    47    25    48 1   
    48    25    49 1   
    49    26    27 1   
    50    26    50 1   
    51    26    51 1   
    52    27    28 1   
    53    27    30 1   
    54    27    52 1   
    55    28    29 1   
    56    28    53 1   
    57    28    54 1   
    58    29    55 1   
    59    29    56 1   
    60    30    31 1   
    61    31    57 1   
    62    31    58 1   
    63    31    59 1   
    64    42    60 1   
@<TRIPOS>SUBSTRUCTURE
     1 3QW         1 TEMP              0 ****  ****    0 ROOT
