@<TRIPOS>MOLECULE
3QX
   37    39     1     0     0
SMALL
abcg2


@<TRIPOS>ATOM
      1 C1          -1.6260    -1.2580     0.4060 cc         1 3QX      -0.409600
      2 C2          -3.0190    -1.0080     0.4040 cc         1 3QX       0.386900
      3 N3          -3.6100     0.0830     0.0440 nd         1 3QX      -0.536800
      4 N4          -2.7790     1.0590    -0.3640 na         1 3QX       0.280900
      5 C5          -1.3960     0.9880    -0.4580 cd         1 3QX      -0.231000
      6 C6          -0.7660    -0.2350    -0.0570 cd         1 3QX       0.504000
      7 C7          -3.2160     2.2620    -0.7920 cd         1 3QX      -0.171100
      8 C8          -2.1160     2.9980    -1.1790 cc         1 3QX      -0.254000
      9 C9          -0.9760     2.2100    -0.9780 cc         1 3QX      -0.205000
     10 C10         -1.0960    -2.5460     0.8760 c          1 3QX       0.646700
     11 N11         -1.9370    -3.3740     1.5250 nt         1 3QX      -0.592000
     12 O12          0.0770    -2.8860     0.6760 o          1 3QX      -0.657100
     13 N13          0.5510    -0.4190    -0.1070 nu         1 3QX      -0.926200
     14 C14          1.5960     0.5140    -0.4310 c5         1 3QX       0.204500
     15 C15          2.0180     0.5440    -1.9070 c5         1 3QX      -0.096400
     16 C16          3.4860     1.0190    -1.8970 c5         1 3QX      -0.072400
     17 C17          3.9110     1.0420    -0.4160 c5         1 3QX      -0.103400
     18 C18          2.8950     0.1820     0.3090 c5         1 3QX       0.189000
     19 C19          2.8380     0.3310     1.8090 c3         1 3QX      -0.109100
     20 F20          3.1880    -1.1680     0.0200 f          1 3QX      -0.262000
     21 H1          -3.7110    -1.7850     0.7060 h4         1 3QX       0.021100
     22 H2          -4.2680     2.4940    -0.7960 h4         1 3QX       0.232000
     23 H3          -2.1390     4.0010    -1.5720 ha         1 3QX       0.205000
     24 H4           0.0300     2.5170    -1.2000 ha         1 3QX       0.200000
     25 H5          -2.8090    -3.0690     1.9190 hn         1 3QX       0.309500
     26 H6          -1.5600    -4.2280     1.9040 hn         1 3QX       0.309500
     27 H7           0.8270    -1.3770     0.1090 hn         1 3QX       0.556000
     28 H8           1.3110     1.5120    -0.0940 h1         1 3QX       0.071700
     29 H9           1.9320    -0.4610    -2.3220 hc         1 3QX       0.063200
     30 H10          1.3710     1.1880    -2.5020 hc         1 3QX       0.063200
     31 H11          4.1120     0.3420    -2.4760 hc         1 3QX       0.051700
     32 H12          3.5940     2.0060    -2.3450 hc         1 3QX       0.051700
     33 H13          4.9300     0.6920    -0.2460 hc         1 3QX       0.059700
     34 H14          3.8550     2.0570    -0.0170 hc         1 3QX       0.059700
     35 H15          2.5950     1.3580     2.0780 hc         1 3QX       0.053700
     36 H16          2.0760    -0.3190     2.2430 hc         1 3QX       0.053700
     37 H17          3.7980     0.0830     2.2630 hc         1 3QX       0.053700
@<TRIPOS>BOND
     1     1     2 1   
     2     1     6 2   
     3     1    10 1   
     4     2     3 2   
     5     2    21 1   
     6     3     4 1   
     7     4     5 1   
     8     4     7 1   
     9     5     6 1   
    10     5     9 2   
    11     6    13 1   
    12     7     8 2   
    13     7    22 1   
    14     8     9 1   
    15     8    23 1   
    16     9    24 1   
    17    10    11 1   
    18    10    12 2   
    19    11    25 1   
    20    11    26 1   
    21    13    14 1   
    22    13    27 1   
    23    14    15 1   
    24    14    18 1   
    25    14    28 1   
    26    15    16 1   
    27    15    29 1   
    28    15    30 1   
    29    16    17 1   
    30    16    31 1   
    31    16    32 1   
    32    17    18 1   
    33    17    33 1   
    34    17    34 1   
    35    18    19 1   
    36    18    20 1   
    37    19    35 1   
    38    19    36 1   
    39    19    37 1   
@<TRIPOS>SUBSTRUCTURE
     1 3QX         1 TEMP              0 ****  ****    0 ROOT
