@<TRIPOS>MOLECULE
3QX
   37    39     1     0     0
SMALL
No Charge or Current Charge


@<TRIPOS>ATOM
      1 C1          -1.5010    -1.1650     0.4570 cc         1 3QX      -0.409600
      2 C2          -2.8670    -0.8570     0.8070 cc         1 3QX       0.386900
      3 N3          -3.5720     0.2470     0.5460 nd         1 3QX      -0.536800
      4 N4          -2.8270     1.1580    -0.1550 na         1 3QX       0.280900
      5 C5          -1.5260     0.9620    -0.5480 cd         1 3QX      -0.231000
      6 C6          -0.7880    -0.2150    -0.2320 cd         1 3QX       0.504000
      7 C7          -3.3540     2.3650    -0.5890 cd         1 3QX      -0.171100
      8 C8          -2.3190     2.9380    -1.2990 cc         1 3QX      -0.254000
      9 C9          -1.1880     2.0740    -1.2840 cc         1 3QX      -0.205000
     10 C10         -0.9130    -2.4620     0.8350 c          1 3QX       0.646700
     11 N11         -1.6880    -3.3130     1.5310 nt         1 3QX      -0.592000
     12 O12          0.2200    -2.8120     0.5550 o          1 3QX      -0.657100
     13 N13          0.5170    -0.3870    -0.5940 nu         1 3QX      -0.926200
     14 C14          1.5970     0.6340    -0.5950 c5         1 3QX       0.204500
     15 C15          2.2260     0.5420    -2.0120 c5         1 3QX      -0.096400
     16 C16          3.6990     1.0150    -1.7800 c5         1 3QX      -0.072400
     17 C17          3.9110     0.9780    -0.2280 c5         1 3QX      -0.103400
     18 C18          2.7590     0.0800     0.2990 c5         1 3QX       0.189000
     19 C19          2.5180     0.1940     1.8210 c3         1 3QX      -0.109100
     20 F20          3.0430    -1.2690     0.0330 f          1 3QX      -0.262000
     21 H1          -3.4730    -1.5660     1.3520 h4         1 3QX       0.021100
     22 H2          -4.3680     2.6870    -0.3750 h4         1 3QX       0.232000
     23 H3          -2.3520     3.9000    -1.8120 ha         1 3QX       0.205000
     24 H4          -0.2490     2.2760    -1.7940 ha         1 3QX       0.200000
     25 H5          -2.6300    -3.0660     1.7850 hn         1 3QX       0.309500
     26 H6          -1.3060    -4.2080     1.7980 hn         1 3QX       0.309500
     27 H7           0.8000    -1.3410    -0.3290 hn         1 3QX       0.556000
     28 H8           1.2960     1.6500    -0.3030 h1         1 3QX       0.071700
     29 H9           2.2200    -0.4820    -2.4070 hc         1 3QX       0.063200
     30 H10          1.6990     1.1640    -2.7430 hc         1 3QX       0.063200
     31 H11          4.4050     0.3560    -2.2970 hc         1 3QX       0.051700
     32 H12          3.8660     2.0250    -2.1740 hc         1 3QX       0.051700
     33 H13          4.8990     0.5880     0.0450 hc         1 3QX       0.059700
     34 H14          3.8440     1.9880     0.1940 hc         1 3QX       0.059700
     35 H15          2.2910     1.2270     2.1090 hc         1 3QX       0.053700
     36 H16          1.6760    -0.4330     2.1350 hc         1 3QX       0.053700
     37 H17          3.4030    -0.1250     2.3840 hc         1 3QX       0.053700
@<TRIPOS>BOND
     1     1     2 1   
     2     1     6 2   
     3     1    10 1   
     4     2     3 2   
     5     2    21 1   
     6     3     4 1   
     7     4     5 1   
     8     4     7 1   
     9     5     6 1   
    10     5     9 2   
    11     6    13 1   
    12     7     8 2   
    13     7    22 1   
    14     8     9 1   
    15     8    23 1   
    16     9    24 1   
    17    10    11 1   
    18    10    12 2   
    19    11    25 1   
    20    11    26 1   
    21    13    14 1   
    22    13    27 1   
    23    14    15 1   
    24    14    18 1   
    25    14    28 1   
    26    15    16 1   
    27    15    29 1   
    28    15    30 1   
    29    16    17 1   
    30    16    31 1   
    31    16    32 1   
    32    17    18 1   
    33    17    33 1   
    34    17    34 1   
    35    18    19 1   
    36    18    20 1   
    37    19    35 1   
    38    19    36 1   
    39    19    37 1   
@<TRIPOS>SUBSTRUCTURE
     1 3QX         1 TEMP              0 ****  ****    0 ROOT
