@<TRIPOS>MOLECULE
3QY
   51    55     1     0     0
SMALL
No Charge or Current Charge


@<TRIPOS>ATOM
      1 C4           6.3990     0.9120     0.2110 c6         1 3QY      -0.121400
      2 C5           5.6840    -0.2950    -0.4340 c6         1 3QY       0.217800
      3 C11          3.4890    -3.8050     0.1660 ca         1 3QY       0.168900
      4 C7           3.5320     0.9950    -0.4670 c6         1 3QY       0.217800
      5 C8           4.2440     2.2110     0.1680 c6         1 3QY      -0.121400
      6 C9           3.4810    -1.5120    -0.0120 ca         1 3QY       0.416900
      7 C12          2.0890    -3.8020     0.2050 ca         1 3QY      -0.345000
      8 C13          1.4440    -2.5680     0.1200 ca         1 3QY       0.428900
      9 C3           5.7440     2.2420    -0.2050 c6         1 3QY       0.170300
     10 O2           6.4400     3.3330     0.4350 os         1 3QY      -0.455000
     11 N6           4.2170    -0.2950    -0.1220 nh         1 3QY      -0.758300
     12 N10          4.1870    -2.6620     0.0570 nb         1 3QY      -0.273000
     13 N14          2.1370    -1.4230     0.0210 nb         1 3QY      -0.288000
     14 N15          0.0580    -2.5360     0.1780 nu         1 3QY      -0.919800
     15 C16         -0.9200    -1.5770    -0.0090 ca         1 3QY       0.608900
     16 C17         -2.2480    -1.8640     0.3640 ca         1 3QY      -0.220000
     17 C18         -3.2050    -0.8730     0.1370 ca         1 3QY      -0.002200
     18 C19         -2.8250     0.3070    -0.4310 ca         1 3QY      -0.168800
     19 C20         -3.9980     1.1280    -0.5470 cc         1 3QY      -0.217200
     20 C21         -5.0360     0.3670    -0.0260 cd         1 3QY       0.042700
     21 N22         -4.5640    -0.8890     0.4080 na         1 3QY      -0.218700
     22 C24         -6.4010     0.8020     0.0570 cd         1 3QY      -0.165800
     23 C25         -6.8460     2.0210    -0.3670 cc         1 3QY      -0.143000
     24 N26         -8.2110     1.9670    -0.0790 na         1 3QY       0.003800
     25 N28         -8.6170     0.7680     0.5020 nc         1 3QY      -0.511800
     26 C29         -7.4930     0.0770     0.5730 cd         1 3QY       0.245900
     27 C30         -1.4860     0.5310    -0.7900 ca         1 3QY       0.411900
     28 N31         -0.5390    -0.4160    -0.5800 nb         1 3QY      -0.681000
     29 H1           6.3740     0.8100     1.3040 hc         1 3QY       0.058700
     30 H2           7.4570     0.9090    -0.0830 hc         1 3QY       0.058700
     31 H3           5.8350    -0.2680    -1.5240 h1         1 3QY       0.067700
     32 H4           6.1820    -1.2030    -0.0640 h1         1 3QY       0.067700
     33 H5           4.0590    -4.7310     0.2240 h4         1 3QY       0.015100
     34 H6           2.4890     1.0130    -0.1180 h1         1 3QY       0.067700
     35 H7           3.5040     1.1220    -1.5600 h1         1 3QY       0.067700
     36 H8           3.7420     3.1260    -0.1710 hc         1 3QY       0.058700
     37 H9           4.1320     2.1720     1.2600 hc         1 3QY       0.058700
     38 H10          1.5350    -4.7320     0.2940 ha         1 3QY       0.128000
     39 H11          5.8440     2.3590    -1.2950 h1         1 3QY       0.026700
     40 H12          6.7470     5.3990     0.5260 h1         1 3QY       0.026367
     41 H13          6.1580     4.7990    -1.0400 h1         1 3QY       0.026367
     42 H14          5.0510     4.9100     0.3530 h1         1 3QY       0.026367
     43 H15         -0.3410    -3.4340     0.4260 hn         1 3QY       0.501000
     44 H16         -2.5160    -2.8150     0.8130 ha         1 3QY       0.123000
     45 H17         -4.0720     2.1330    -0.9540 ha         1 3QY       0.204000
     46 H18         -5.1020    -1.6380     0.8260 hn         1 3QY       0.352000
     47 H19         -6.3540     2.8740    -0.8200 h4         1 3QY       0.162000
     48 H20         -8.8820     2.7130    -0.2610 hn         1 3QY       0.376000
     49 H21         -7.5030    -0.9210     0.9930 h4         1 3QY       0.034100
     50 H22         -1.1660     1.4660    -1.2490 h4         1 3QY       0.022100
     51 C1           6.0770     4.6720     0.0480 c3         1 3QY       0.148900
@<TRIPOS>BOND
     1     1     2 1   
     2     1     9 1   
     3     1    29 1   
     4     1    30 1   
     5     2    11 1   
     6     2    31 1   
     7     2    32 1   
     8     3     7 ar  
     9     3    12 ar  
    10     3    33 1   
    11     4     5 1   
    12     4    11 1   
    13     4    34 1   
    14     4    35 1   
    15     5     9 1   
    16     5    36 1   
    17     5    37 1   
    18     6    11 1   
    19     6    12 ar  
    20     6    13 ar  
    21     7     8 ar  
    22     7    38 1   
    23     8    13 ar  
    24     8    14 1   
    25     9    10 1   
    26     9    39 1   
    27    10    51 1   
    28    14    15 1   
    29    14    43 1   
    30    15    16 ar  
    31    15    28 ar  
    32    16    17 ar  
    33    16    44 1   
    34    17    18 ar  
    35    17    21 1   
    36    18    19 1   
    37    18    27 ar  
    38    19    20 2   
    39    19    45 1   
    40    20    21 1   
    41    20    22 1   
    42    21    46 1   
    43    22    23 2   
    44    22    26 1   
    45    23    24 1   
    46    23    47 1   
    47    24    25 1   
    48    24    48 1   
    49    25    26 2   
    50    26    49 1   
    51    27    28 ar  
    52    27    50 1   
    53    40    51 1   
    54    41    51 1   
    55    42    51 1   
@<TRIPOS>SUBSTRUCTURE
     1 3QY         1 TEMP              0 ****  ****    0 ROOT
