@<TRIPOS>MOLECULE
3QY
   51    55     1     0     0
SMALL
abcg2


@<TRIPOS>ATOM
      1 C4           5.5440     0.9550     0.4500 c6         1 3QY      -0.121400
      2 C5           5.4460    -0.0360    -0.7080 c6         1 3QY       0.217800
      3 C11          3.8660    -3.6440     0.3930 ca         1 3QY       0.168900
      4 C7           3.2120     0.7170    -1.2460 c6         1 3QY       0.217800
      5 C8           3.2310     1.7370    -0.1110 c6         1 3QY      -0.121400
      6 C9           3.5530    -1.5710    -0.4440 ca         1 3QY       0.416900
      7 C12          2.5140    -3.8840     0.4240 ca         1 3QY      -0.345000
      8 C13          1.7020    -2.8220    -0.0150 ca         1 3QY       0.428900
      9 C3           4.6640     2.1700     0.1920 c6         1 3QY       0.170300
     10 O2           4.7580     3.0180     1.3150 os         1 3QY      -0.455000
     11 N6           4.0670    -0.4140    -0.9410 nh         1 3QY      -0.758300
     12 N10          4.4130    -2.5090    -0.0330 nb         1 3QY      -0.273000
     13 N14          2.2230    -1.6820    -0.4300 nb         1 3QY      -0.288000
     14 N15          0.3480    -2.9560     0.0080 nu         1 3QY      -0.919800
     15 C16         -0.5850    -1.9720    -0.3560 ca         1 3QY       0.608900
     16 C17         -1.6110    -1.6750     0.5280 ca         1 3QY      -0.220000
     17 C18         -2.5410    -0.7420     0.0890 ca         1 3QY      -0.002200
     18 C19         -2.4100    -0.1210    -1.1700 ca         1 3QY      -0.168800
     19 C20         -3.5010     0.7860    -1.3050 cc         1 3QY      -0.217200
     20 C21         -4.2400     0.6920    -0.1550 cd         1 3QY       0.042700
     21 N22         -3.6500    -0.2330     0.6800 na         1 3QY      -0.218700
     22 C24         -5.4470     1.3850     0.2330 cd         1 3QY      -0.165800
     23 C25         -6.1590     2.3090    -0.5100 cc         1 3QY      -0.143000
     24 N26         -7.1980     2.6800     0.2460 na         1 3QY       0.003800
     25 N28         -7.2340     2.0760     1.4270 nc         1 3QY      -0.511800
     26 C29         -6.1780     1.2870     1.4370 cd         1 3QY       0.245900
     27 C30         -1.3240    -0.5060    -1.9560 ca         1 3QY       0.411900
     28 N31         -0.4520    -1.4160    -1.5630 nb         1 3QY      -0.681000
     29 H1           5.2330     0.4620     1.3770 hc         1 3QY       0.058700
     30 H2           6.5840     1.2660     0.5760 hc         1 3QY       0.058700
     31 H3           5.8320     0.4260    -1.6210 h1         1 3QY       0.067700
     32 H4           6.0430    -0.9220    -0.5130 h1         1 3QY       0.067700
     33 H5           4.5570    -4.4100     0.7290 h4         1 3QY       0.015100
     34 H6           2.2020     0.3690    -1.4380 h1         1 3QY       0.067700
     35 H7           3.5820     1.1800    -2.1670 h1         1 3QY       0.067700
     36 H8           2.6130     2.5920    -0.3970 hc         1 3QY       0.058700
     37 H9           2.7840     1.2940     0.7850 hc         1 3QY       0.058700
     38 H10          2.1050    -4.8210     0.7730 ha         1 3QY       0.128000
     39 H11          5.0560     2.6940    -0.6960 h1         1 3QY       0.026700
     40 H12          4.5190     4.9150     1.9830 h1         1 3QY       0.026367
     41 H13          4.8060     4.7960     0.2380 h1         1 3QY       0.026367
     42 H14          3.2210     4.3780     0.9080 h1         1 3QY       0.026367
     43 H15         -0.0100    -3.7330     0.5400 hn         1 3QY       0.501000
     44 H16         -1.6720    -2.1430     1.5020 ha         1 3QY       0.123000
     45 H17         -3.7150     1.4280    -2.1450 ha         1 3QY       0.204000
     46 H18         -3.9870    -0.4960     1.5920 hn         1 3QY       0.352000
     47 H19         -5.9960     2.7130    -1.4960 h4         1 3QY       0.162000
     48 H20         -7.9210     3.3360    -0.0040 hn         1 3QY       0.376000
     49 H21         -5.9710     0.6750     2.3020 h4         1 3QY       0.034100
     50 H22         -1.1690    -0.0740    -2.9390 h4         1 3QY       0.022100
     51 C1           4.3000     4.3280     1.0910 c3         1 3QY       0.148900
@<TRIPOS>BOND
     1     1     2 1   
     2     1     9 1   
     3     1    29 1   
     4     1    30 1   
     5     2    11 1   
     6     2    31 1   
     7     2    32 1   
     8     3     7 ar  
     9     3    12 ar  
    10     3    33 1   
    11     4     5 1   
    12     4    11 1   
    13     4    34 1   
    14     4    35 1   
    15     5     9 1   
    16     5    36 1   
    17     5    37 1   
    18     6    11 1   
    19     6    12 ar  
    20     6    13 ar  
    21     7     8 ar  
    22     7    38 1   
    23     8    13 ar  
    24     8    14 1   
    25     9    10 1   
    26     9    39 1   
    27    10    51 1   
    28    14    15 1   
    29    14    43 1   
    30    15    16 ar  
    31    15    28 ar  
    32    16    17 ar  
    33    16    44 1   
    34    17    18 ar  
    35    17    21 1   
    36    18    19 1   
    37    18    27 ar  
    38    19    20 2   
    39    19    45 1   
    40    20    21 1   
    41    20    22 1   
    42    21    46 1   
    43    22    23 2   
    44    22    26 1   
    45    23    24 1   
    46    23    47 1   
    47    24    25 1   
    48    24    48 1   
    49    25    26 2   
    50    26    49 1   
    51    27    28 ar  
    52    27    50 1   
    53    40    51 1   
    54    41    51 1   
    55    42    51 1   
@<TRIPOS>SUBSTRUCTURE
     1 3QY         1 TEMP              0 ****  ****    0 ROOT
