@<TRIPOS>MOLECULE
3QZ
   54    57     1     0     0
SMALL
abcg2


@<TRIPOS>ATOM
      1 CAA          4.8700     2.0220    -0.6550 c3         1 3QZ      -0.192100
      2 CAB         -2.3940     0.6180     1.9960 c3         1 3QZ      -0.081100
      3 CAC          2.3600     0.2030     1.7030 c3         1 3QZ      -0.091100
      4 OAD          5.3650     0.2340     0.8200 o          1 3QZ      -0.519100
      5 OAF          3.2440     0.1730    -1.9240 oh         1 3QZ      -0.652000
      6 CAG         -4.3070    -0.8650    -0.3990 ce         1 3QZ      -0.319200
      7 CAH         -2.3800    -2.1370     0.4490 c6         1 3QZ      -0.051200
      8 CAI         -4.5240     1.6190    -0.1100 c6         1 3QZ      -0.181400
      9 CAJ         -0.9620    -2.1810    -0.1070 c6         1 3QZ      -0.069400
     10 CAK         -0.0260     1.5520     0.3580 c6         1 3QZ      -0.072400
     11 CAL          2.1350    -2.1850    -0.0600 c5         1 3QZ      -0.066400
     12 CAM         -3.0090     1.6160    -0.2360 c6         1 3QZ      -0.064400
     13 CAN          1.3990     1.5120    -0.2020 c6         1 3QZ      -0.061400
     14 CAO          3.5600    -1.6540    -0.3340 c5         1 3QZ      -0.100400
     15 CAP          4.6310     0.6670    -0.0400 c          1 3QZ       0.557100
     16 CAQ         -5.1180     0.3310    -0.6050 c          1 3QZ       0.575300
     17 CAR         -3.0710    -0.8490     0.1300 c2         1 3QZ      -0.030400
     18 CAS         -0.1550    -0.9780     0.3600 c6         1 3QZ      -0.045700
     19 CAT         -0.8640     0.3290    -0.0330 c6         1 3QZ      -0.047700
     20 CAU          1.2340    -0.9700    -0.2600 c5         1 3QZ      -0.064700
     21 CAV         -2.3330     0.4300     0.4690 c6         1 3QZ      -0.011800
     22 CAW          2.1050     0.2150     0.1910 c5         1 3QZ      -0.022000
     23 CAX          3.4320    -0.1300    -0.5580 c5         1 3QZ       0.080000
     24 HAA          5.5520     2.6000    -0.0350 hc         1 3QZ       0.063033
     25 HAAA         5.3200     1.9050    -1.6420 hc         1 3QZ       0.063033
     26 HAAB         3.9450     2.5780    -0.7980 hc         1 3QZ       0.063033
     27 HAB         -3.4160     0.5230     2.3650 hc         1 3QZ       0.038033
     28 HABA        -1.7860    -0.1180     2.5210 hc         1 3QZ       0.038033
     29 HABB        -2.0330     1.6070     2.2770 hc         1 3QZ       0.038033
     30 HAC          1.4300     0.2240     2.2700 hc         1 3QZ       0.041033
     31 HACA         2.9130    -0.6740     2.0380 hc         1 3QZ       0.041033
     32 HACB         2.9270     1.0840     2.0100 hc         1 3QZ       0.041033
     33 HOAF         3.8990    -0.3060    -2.4410 ho         1 3QZ       0.446000
     34 HAG         -4.7750    -1.8150    -0.6380 ha         1 3QZ       0.195000
     35 HAH         -2.9680    -2.9810     0.0840 hc         1 3QZ       0.054200
     36 HAHA        -2.3330    -2.2430     1.5400 hc         1 3QZ       0.054200
     37 HAI         -4.8250     1.7380     0.9380 hc         1 3QZ       0.069700
     38 HAIA        -4.9600     2.4600    -0.6520 hc         1 3QZ       0.069700
     39 HAJ         -0.4830    -3.1090     0.2110 hc         1 3QZ       0.046200
     40 HAJA        -0.9950    -2.2020    -1.2020 hc         1 3QZ       0.046200
     41 HAK          0.0100     1.6450     1.4460 hc         1 3QZ       0.040700
     42 HAKA        -0.5010     2.4660    -0.0020 hc         1 3QZ       0.040700
     43 HAL          1.8700    -3.0100    -0.7230 hc         1 3QZ       0.045700
     44 HALA         2.0560    -2.5630     0.9620 hc         1 3QZ       0.045700
     45 HAM         -2.7450     1.5880    -1.2980 hc         1 3QZ       0.048700
     46 HAMA        -2.6190     2.5570     0.1540 hc         1 3QZ       0.048700
     47 HAN          1.3550     1.6030    -1.2890 hc         1 3QZ       0.050200
     48 HANA         1.9410     2.3870     0.1690 hc         1 3QZ       0.050200
     49 HAO          4.2260    -1.8720     0.4990 hc         1 3QZ       0.057700
     50 HAOA         4.0100    -2.1250    -1.2110 hc         1 3QZ       0.057700
     51 HAS         -0.0700    -1.0370     1.4530 hc         1 3QZ       0.052700
     52 HAT         -0.9240     0.3190    -1.1330 hc         1 3QZ       0.051700
     53 HAU          1.0790    -0.8500    -1.3400 hc         1 3QZ       0.063700
     54 OAE         -6.2320     0.2700    -1.0990 o          1 3QZ      -0.530100
@<TRIPOS>BOND
     1     1    15 1   
     2     1    24 1   
     3     1    25 1   
     4     1    26 1   
     5     2    21 1   
     6     2    27 1   
     7     2    28 1   
     8     2    29 1   
     9     3    22 1   
    10     3    30 1   
    11     3    31 1   
    12     3    32 1   
    13     4    15 2   
    14     5    23 1   
    15     5    33 1   
    16     6    16 1   
    17     6    17 2   
    18     6    34 1   
    19     7     9 1   
    20     7    17 1   
    21     7    35 1   
    22     7    36 1   
    23     8    12 1   
    24     8    16 1   
    25     8    37 1   
    26     8    38 1   
    27     9    18 1   
    28     9    39 1   
    29     9    40 1   
    30    10    13 1   
    31    10    19 1   
    32    10    41 1   
    33    10    42 1   
    34    11    14 1   
    35    11    20 1   
    36    11    43 1   
    37    11    44 1   
    38    12    21 1   
    39    12    45 1   
    40    12    46 1   
    41    13    22 1   
    42    13    47 1   
    43    13    48 1   
    44    14    23 1   
    45    14    49 1   
    46    14    50 1   
    47    15    23 1   
    48    16    54 2   
    49    17    21 1   
    50    18    19 1   
    51    18    20 1   
    52    18    51 1   
    53    19    21 1   
    54    19    52 1   
    55    20    22 1   
    56    20    53 1   
    57    22    23 1   
@<TRIPOS>SUBSTRUCTURE
     1 3QZ         1 TEMP              0 ****  ****    0 ROOT
