@<TRIPOS>MOLECULE
3QZ
   54    57     1     0     0
SMALL
No Charge or Current Charge


@<TRIPOS>ATOM
      1 CAA          4.7910     2.1070    -0.4270 c3         1 3QZ      -0.192100
      2 CAB         -2.3970     0.6310     2.0340 c3         1 3QZ      -0.081100
      3 CAC          2.4610     0.2950     1.6640 c3         1 3QZ      -0.091100
      4 OAD          5.7570     0.0600     0.2860 o          1 3QZ      -0.519100
      5 OAF          3.3200    -0.0260    -2.1330 oh         1 3QZ      -0.652000
      6 CAG         -4.4170    -0.8630    -0.2820 ce         1 3QZ      -0.319200
      7 CAH         -2.4130    -2.1590     0.4640 c6         1 3QZ      -0.051200
      8 CAI         -4.6140     1.6640    -0.0470 c6         1 3QZ      -0.181400
      9 CAJ         -0.9980    -2.1960    -0.1410 c6         1 3QZ      -0.069400
     10 CAK          0.0080     1.6050     0.2670 c6         1 3QZ      -0.072400
     11 CAL          2.1730    -2.2320     0.0320 c5         1 3QZ      -0.066400
     12 CAM         -3.0750     1.6790    -0.2030 c6         1 3QZ      -0.064400
     13 CAN          1.4440     1.5060    -0.3230 c6         1 3QZ      -0.061400
     14 CAO          3.6070    -1.7480    -0.3730 c5         1 3QZ      -0.100400
     15 CAP          4.7660     0.5890    -0.2070 c          1 3QZ       0.557100
     16 CAQ         -5.2060     0.3580    -0.5700 c          1 3QZ       0.575300
     17 CAR         -3.1380    -0.8490     0.1670 c2         1 3QZ      -0.030400
     18 CAS         -0.1600    -0.9790     0.3260 c6         1 3QZ      -0.045700
     19 CAT         -0.8800     0.3560    -0.0790 c6         1 3QZ      -0.047700
     20 CAU          1.2700    -1.0130    -0.2920 c5         1 3QZ      -0.064700
     21 CAV         -2.3620     0.4540     0.4780 c6         1 3QZ      -0.011800
     22 CAW          2.1750     0.1950     0.1190 c5         1 3QZ      -0.022000
     23 CAX          3.4760    -0.2040    -0.7060 c5         1 3QZ       0.080000
     24 HAA          4.3040     2.5870     0.4280 hc         1 3QZ       0.063033
     25 HAAA         5.8150     2.4900    -0.5030 hc         1 3QZ       0.063033
     26 HAAB         4.1770     2.3900    -1.2880 hc         1 3QZ       0.063033
     27 HAB         -3.4180     0.5480     2.4250 hc         1 3QZ       0.038033
     28 HABA        -1.8030    -0.1290     2.5540 hc         1 3QZ       0.038033
     29 HABB        -2.0160     1.6110     2.3430 hc         1 3QZ       0.038033
     30 HAC          1.5460     0.3020     2.2630 hc         1 3QZ       0.041033
     31 HACA         3.0700    -0.5350     2.0380 hc         1 3QZ       0.041033
     32 HACB         3.0020     1.2150     1.9110 hc         1 3QZ       0.041033
     33 HOAF         4.0470    -0.5180    -2.5750 ho         1 3QZ       0.446000
     34 HAG         -4.9240    -1.7990    -0.5050 ha         1 3QZ       0.195000
     35 HAH         -2.9900    -3.0130     0.0820 hc         1 3QZ       0.054200
     36 HAHA        -2.3520    -2.3020     1.5510 hc         1 3QZ       0.054200
     37 HAI         -4.8390     1.7040     1.0250 hc         1 3QZ       0.069700
     38 HAIA        -5.1050     2.5210    -0.5260 hc         1 3QZ       0.069700
     39 HAJ         -0.5080    -3.1340     0.1520 hc         1 3QZ       0.046200
     40 HAJA        -1.0700    -2.2080    -1.2370 hc         1 3QZ       0.046200
     41 HAK          0.0650     1.7510     1.3520 hc         1 3QZ       0.040700
     42 HAKA        -0.4520     2.5180    -0.1310 hc         1 3QZ       0.040700
     43 HAL          1.8720    -3.1230    -0.5310 hc         1 3QZ       0.045700
     44 HALA         2.1250    -2.5010     1.0930 hc         1 3QZ       0.045700
     45 HAM         -2.8440     1.6940    -1.2770 hc         1 3QZ       0.048700
     46 HAMA        -2.6900     2.6250     0.2020 hc         1 3QZ       0.048700
     47 HAN          1.3710     1.5480    -1.4180 hc         1 3QZ       0.050200
     48 HANA         2.0150     2.3930    -0.0240 hc         1 3QZ       0.050200
     49 HAO          4.2950    -1.9500     0.4560 hc         1 3QZ       0.057700
     50 HAOA         3.9960    -2.3170    -1.2260 hc         1 3QZ       0.057700
     51 HAS         -0.0670    -1.0340     1.4180 hc         1 3QZ       0.052700
     52 HAT         -0.9610     0.3330    -1.1750 hc         1 3QZ       0.051700
     53 HAU          1.0810    -0.9950    -1.3740 hc         1 3QZ       0.063700
     54 OAE         -6.2700     0.3220    -1.1720 o          1 3QZ      -0.530100
@<TRIPOS>BOND
     1     1    15 1   
     2     1    24 1   
     3     1    25 1   
     4     1    26 1   
     5     2    21 1   
     6     2    27 1   
     7     2    28 1   
     8     2    29 1   
     9     3    22 1   
    10     3    30 1   
    11     3    31 1   
    12     3    32 1   
    13     4    15 2   
    14     5    23 1   
    15     5    33 1   
    16     6    16 1   
    17     6    17 2   
    18     6    34 1   
    19     7     9 1   
    20     7    17 1   
    21     7    35 1   
    22     7    36 1   
    23     8    12 1   
    24     8    16 1   
    25     8    37 1   
    26     8    38 1   
    27     9    18 1   
    28     9    39 1   
    29     9    40 1   
    30    10    13 1   
    31    10    19 1   
    32    10    41 1   
    33    10    42 1   
    34    11    14 1   
    35    11    20 1   
    36    11    43 1   
    37    11    44 1   
    38    12    21 1   
    39    12    45 1   
    40    12    46 1   
    41    13    22 1   
    42    13    47 1   
    43    13    48 1   
    44    14    23 1   
    45    14    49 1   
    46    14    50 1   
    47    15    23 1   
    48    16    54 2   
    49    17    21 1   
    50    18    19 1   
    51    18    20 1   
    52    18    51 1   
    53    19    21 1   
    54    19    52 1   
    55    20    22 1   
    56    20    53 1   
    57    22    23 1   
@<TRIPOS>SUBSTRUCTURE
     1 3QZ         1 TEMP              0 ****  ****    0 ROOT
