@<TRIPOS>MOLECULE
3R0
   50    54     1     0     0
SMALL
abcg2


@<TRIPOS>ATOM
      1 C4           5.5370     1.0260     0.4110 c6         1 3R0      -0.121400
      2 C5           5.4410     0.0150    -0.7290 c6         1 3R0       0.219300
      3 C11          3.9190    -3.5990     0.4270 ca         1 3R0       0.169900
      4 C7           3.1940     0.7330    -1.2610 c6         1 3R0       0.219300
      5 C8           3.2100     1.7720    -0.1430 c6         1 3R0      -0.121400
      6 C9           3.5710    -1.5430    -0.4350 ca         1 3R0       0.417900
      7 C12          2.5710    -3.8620     0.4620 ca         1 3R0      -0.343000
      8 C13          1.7410    -2.8200     0.0090 ca         1 3R0       0.428900
      9 C3           4.6410     2.2270     0.1400 c6         1 3R0       0.170300
     10 O2           4.7360     3.0960     1.2460 os         1 3R0      -0.454000
     11 N6           4.0640    -0.3830    -0.9450 nh         1 3R0      -0.760300
     12 N10          4.4460    -2.4610    -0.0140 nb         1 3R0      -0.274000
     13 N14          2.2430    -1.6770    -0.4210 nb         1 3R0      -0.291000
     14 N15          0.3890    -2.9780     0.0310 nu         1 3R0      -0.918800
     15 C16         -0.5600    -2.0140    -0.3410 ca         1 3R0       0.574900
     16 C17         -1.5920    -1.7240     0.5410 ca         1 3R0      -0.146000
     17 C18         -2.5430    -0.8070     0.1060 ca         1 3R0       0.127400
     18 C19         -2.3830    -0.2250    -1.1610 ca         1 3R0      -0.165200
     19 C20         -1.3130    -0.5740    -1.9660 ca         1 3R0       0.374900
     20 N21         -0.4340    -1.4710    -1.5540 nb         1 3R0      -0.651000
     21 N22         -3.4450     0.6300    -1.2890 na         1 3R0      -0.298600
     22 C23         -4.1720     0.5370    -0.1460 cc         1 3R0       0.540400
     23 N24         -3.6620    -0.3160     0.7140 nd         1 3R0      -0.597100
     24 C26         -5.3700     1.3050     0.0780 cc         1 3R0      -0.264900
     25 C27         -6.1390     1.2990     1.2280 cd         1 3R0      -0.099000
     26 N28         -7.1410     2.1510     1.0060 na         1 3R0       0.001800
     27 N30         -7.0990     2.7200    -0.1960 nd         1 3R0      -0.513800
     28 C31         -6.0290     2.2170    -0.7740 cc         1 3R0       0.257900
     29 H1           5.2380     0.5460     1.3480 hc         1 3R0       0.058700
     30 H2           6.5740     1.3510     0.5240 hc         1 3R0       0.058700
     31 H3           5.8140     0.4660    -1.6540 h1         1 3R0       0.066950
     32 H4           6.0500    -0.8600    -0.5250 h1         1 3R0       0.066950
     33 H5           4.6240    -4.3500     0.7700 h4         1 3R0       0.015100
     34 H6           2.1860     0.3690    -1.4370 h1         1 3R0       0.066950
     35 H7           3.5490     1.1850    -2.1930 h1         1 3R0       0.066950
     36 H8           2.5800     2.6160    -0.4380 hc         1 3R0       0.058700
     37 H9           2.7760     1.3400     0.7640 hc         1 3R0       0.058700
     38 H10          2.1780    -4.8020     0.8240 ha         1 3R0       0.129000
     39 H11          5.0190     2.7390    -0.7620 h1         1 3R0       0.025700
     40 H12          4.4710     5.0000     1.8850 h1         1 3R0       0.026367
     41 H13          4.7300     4.8550     0.1380 h1         1 3R0       0.026367
     42 H14          3.1650     4.4200     0.8440 h1         1 3R0       0.026367
     43 H15          0.0450    -3.7550     0.5730 hn         1 3R0       0.503000
     44 H16         -1.6440    -2.1830     1.5200 ha         1 3R0       0.137000
     45 H17         -1.1700    -0.1460    -2.9520 h4         1 3R0       0.024100
     46 H18         -3.6430     1.2220    -2.0810 hn         1 3R0       0.362000
     47 H20         -6.0320     0.7600     2.1540 h4         1 3R0       0.177000
     48 H21         -7.8820     2.3890     1.6470 hn         1 3R0       0.379000
     49 H22         -5.7620     2.5170    -1.7760 h4         1 3R0       0.036100
     50 C1           4.2480     4.3930     1.0080 c3         1 3R0       0.148900
@<TRIPOS>BOND
     1     1     2 1   
     2     1     9 1   
     3     1    29 1   
     4     1    30 1   
     5     2    11 1   
     6     2    31 1   
     7     2    32 1   
     8     3     7 ar  
     9     3    12 ar  
    10     3    33 1   
    11     4     5 1   
    12     4    11 1   
    13     4    34 1   
    14     4    35 1   
    15     5     9 1   
    16     5    36 1   
    17     5    37 1   
    18     6    11 1   
    19     6    12 ar  
    20     6    13 ar  
    21     7     8 ar  
    22     7    38 1   
    23     8    13 ar  
    24     8    14 1   
    25     9    10 1   
    26     9    39 1   
    27    10    50 1   
    28    14    15 1   
    29    14    43 1   
    30    15    16 ar  
    31    15    20 ar  
    32    16    17 ar  
    33    16    44 1   
    34    17    18 ar  
    35    17    23 1   
    36    18    19 ar  
    37    18    21 1   
    38    19    20 ar  
    39    19    45 1   
    40    21    22 1   
    41    21    46 1   
    42    22    23 2   
    43    22    24 1   
    44    24    25 2   
    45    24    28 1   
    46    25    26 1   
    47    25    47 1   
    48    26    27 1   
    49    26    48 1   
    50    27    28 2   
    51    28    49 1   
    52    40    50 1   
    53    41    50 1   
    54    42    50 1   
@<TRIPOS>SUBSTRUCTURE
     1 3R0         1 TEMP              0 ****  ****    0 ROOT
