@<TRIPOS>MOLECULE
3R0
   50    54     1     0     0
SMALL
No Charge or Current Charge


@<TRIPOS>ATOM
      1 C4           6.3610     0.9870     0.2160 c6         1 3R0      -0.121400
      2 C5           5.6800    -0.2500    -0.4100 c6         1 3R0       0.219300
      3 C11          3.5470    -3.7910     0.2240 ca         1 3R0       0.169900
      4 C7           3.5040     0.9950    -0.5060 c6         1 3R0       0.219300
      5 C8           4.1800     2.2400     0.1110 c6         1 3R0      -0.121400
      6 C9           3.4970    -1.5020     0.0070 ca         1 3R0       0.417900
      7 C12          2.1470    -3.8140     0.2560 ca         1 3R0      -0.343000
      8 C13          1.4800    -2.5940     0.1470 ca         1 3R0       0.428900
      9 C3           5.6850     2.2930    -0.2410 c6         1 3R0       0.170300
     10 O2           6.3480     3.4130     0.3840 os         1 3R0      -0.454000
     11 N6           4.2090    -0.2720    -0.1200 nh         1 3R0      -0.760300
     12 N10          4.2240    -2.6360     0.0990 nb         1 3R0      -0.274000
     13 N14          2.1510    -1.4380     0.0330 nb         1 3R0      -0.291000
     14 N15          0.0930    -2.5850     0.1990 nu         1 3R0      -0.918800
     15 C16         -0.9010    -1.6440    -0.0220 ca         1 3R0       0.574900
     16 C17         -2.2260    -1.9180     0.3750 ca         1 3R0      -0.146000
     17 C18         -3.1880    -0.9440     0.1060 ca         1 3R0       0.127400
     18 C19         -2.8150     0.2010    -0.5200 ca         1 3R0      -0.165200
     19 C20         -1.4840     0.4220    -0.9040 ca         1 3R0       0.374900
     20 N21         -0.5320    -0.5090    -0.6540 nb         1 3R0      -0.651000
     21 N22         -3.9440     0.9610    -0.6530 na         1 3R0      -0.298600
     22 C23         -4.9840     0.2280    -0.0880 cc         1 3R0       0.540400
     23 N24         -4.5490    -0.9560     0.3910 nd         1 3R0      -0.597100
     24 C26         -6.3200     0.7390    -0.0590 cc         1 3R0      -0.264900
     25 C27         -7.4000     0.0960     0.4710 cd         1 3R0      -0.099000
     26 N28         -8.4620     0.9870     0.2610 na         1 3R0       0.001800
     27 N30         -8.0580     2.1620    -0.3850 nd         1 3R0      -0.513800
     28 C31         -6.7660     1.9690    -0.5570 cc         1 3R0       0.257900
     29 H1           6.3210     0.9090     1.3110 hc         1 3R0       0.058700
     30 H2           7.4230     0.9990    -0.0620 hc         1 3R0       0.058700
     31 H3           5.8470    -0.2450    -1.4980 h1         1 3R0       0.066950
     32 H4           6.1910    -1.1380    -0.0110 h1         1 3R0       0.066950
     33 H5           4.1350    -4.7050     0.3000 h4         1 3R0       0.015100
     34 H6           2.4550     0.9990    -0.1730 h1         1 3R0       0.066950
     35 H7           3.4910     1.0950    -1.6020 h1         1 3R0       0.066950
     36 H8           3.6650     3.1360    -0.2570 hc         1 3R0       0.058700
     37 H9           4.0530     2.2230     1.2010 hc         1 3R0       0.058700
     38 H10          1.6110    -4.7520     0.3590 ha         1 3R0       0.129000
     39 H11          5.7990     2.3860    -1.3310 h1         1 3R0       0.025700
     40 H12          6.6120     5.4860     0.4300 h1         1 3R0       0.026367
     41 H13          6.0600     4.8370    -1.1290 h1         1 3R0       0.026367
     42 H14          4.9290     4.9580     0.2440 h1         1 3R0       0.026367
     43 H15         -0.2880    -3.4850     0.4740 hn         1 3R0       0.503000
     44 H16         -2.4910    -2.8450     0.8720 ha         1 3R0       0.137000
     45 H17         -1.1750     1.3360    -1.4100 h4         1 3R0       0.024100
     46 H18         -4.0260     1.8760    -1.0750 hn         1 3R0       0.362000
     47 H20         -7.5040    -0.8700     0.9550 h4         1 3R0       0.177000
     48 H21         -9.4330     0.8360     0.5330 hn         1 3R0       0.379000
     49 H22         -6.1830     2.7380    -1.0460 h4         1 3R0       0.036100
     50 C1           5.9650     4.7340    -0.0410 c3         1 3R0       0.148900
@<TRIPOS>BOND
     1     1     2 1   
     2     1     9 1   
     3     1    29 1   
     4     1    30 1   
     5     2    11 1   
     6     2    31 1   
     7     2    32 1   
     8     3     7 ar  
     9     3    12 ar  
    10     3    33 1   
    11     4     5 1   
    12     4    11 1   
    13     4    34 1   
    14     4    35 1   
    15     5     9 1   
    16     5    36 1   
    17     5    37 1   
    18     6    11 1   
    19     6    12 ar  
    20     6    13 ar  
    21     7     8 ar  
    22     7    38 1   
    23     8    13 ar  
    24     8    14 1   
    25     9    10 1   
    26     9    39 1   
    27    10    50 1   
    28    14    15 1   
    29    14    43 1   
    30    15    16 ar  
    31    15    20 ar  
    32    16    17 ar  
    33    16    44 1   
    34    17    18 ar  
    35    17    23 1   
    36    18    19 ar  
    37    18    21 1   
    38    19    20 ar  
    39    19    45 1   
    40    21    22 1   
    41    21    46 1   
    42    22    23 2   
    43    22    24 1   
    44    24    25 2   
    45    24    28 1   
    46    25    26 1   
    47    25    47 1   
    48    26    27 1   
    49    26    48 1   
    50    27    28 2   
    51    28    49 1   
    52    40    50 1   
    53    41    50 1   
    54    42    50 1   
@<TRIPOS>SUBSTRUCTURE
     1 3R0         1 TEMP              0 ****  ****    0 ROOT
