@<TRIPOS>MOLECULE
3R1
   50    52     1     0     0
SMALL
bcc


@<TRIPOS>ATOM
      1 C4           3.3030     1.4920    -0.1050 ca         1 3R1       0.753200
      2 C6           5.1900     0.2510    -0.1660 ca         1 3R1       0.942900
      3 C11          4.5690    -2.7950    -1.0780 c3         1 3R1      -0.109100
      4 C9           5.0710    -2.1870     0.2300 c3         1 3R1       0.244500
      5 C12          5.9540    -3.1370     1.0180 c3         1 3R1       0.125400
      6 C3           4.0380     2.6330    -0.4600 ca         1 3R1      -0.497600
      7 C2           5.3940     2.4550    -0.6570 ca         1 3R1       0.519600
      8 N5           3.8710     0.3090     0.0280 nb         1 3R1      -0.801000
      9 N7           5.9840     1.2690    -0.5100 nb         1 3R1      -0.809000
     10 N8           5.7860    -0.9450     0.0130 nu         1 3R1      -0.859900
     11 O13          7.1180    -3.4120     0.2700 oh         1 3R1      -0.605800
     12 N14          1.9500     1.6170     0.0700 nu         1 3R1      -0.863600
     13 C15          1.0330     0.6860     0.5290 ca         1 3R1       0.703200
     14 C16         -0.2920     0.8310     0.1180 ca         1 3R1      -0.366300
     15 C17         -1.2520    -0.0480     0.6010 ca         1 3R1       0.139600
     16 C18         -0.8420    -1.0660     1.4660 ca         1 3R1      -0.303300
     17 C19          0.5000    -1.1080     1.7980 ca         1 3R1       0.451200
     18 N20          1.4250    -0.2620     1.3680 nb         1 3R1      -0.688000
     19 N21         -2.5610     0.1540     0.1760 ns         1 3R1      -0.460100
     20 C22         -3.6740    -0.5520     0.4860 c          1 3R1       0.702700
     21 O23         -3.7200    -1.5320     1.1970 o          1 3R1      -0.537100
     22 C24         -4.9170     0.0080    -0.1490 ca         1 3R1      -0.155600
     23 C25         -5.3660    -0.4610    -1.3770 ca         1 3R1       0.059400
     24 C26         -6.5410     0.0030    -1.9440 ca         1 3R1      -0.123500
     25 C27         -7.2840     0.9550    -1.2620 ca         1 3R1      -0.095000
     26 C28         -6.8620     1.4440    -0.0350 ca         1 3R1      -0.123500
     27 C29         -5.6820     0.9620     0.5070 ca         1 3R1       0.059400
     28 CL1         -5.1380     1.5650     2.0340 cl         1 3R1      -0.079900
     29 CL2         -4.4200    -1.6400    -2.2160 cl         1 3R1      -0.079900
     30 H2           3.8890    -2.1040    -1.5770 hc         1 3R1       0.043367
     31 H3           5.3910    -3.0180    -1.7590 hc         1 3R1       0.043367
     32 H4           4.2070    -1.9620     0.8580 h1         1 3R1       0.091700
     33 H5           6.1980    -2.6760     1.9840 h1         1 3R1       0.029200
     34 H6           5.3820    -4.0490     1.2300 h1         1 3R1       0.029200
     35 H7           3.5700     3.6010    -0.5740 ha         1 3R1       0.143000
     36 H11          6.7530    -1.0040    -0.2640 hn         1 3R1       0.455800
     37 H12          7.7070    -3.9490     0.8070 ho         1 3R1       0.406000
     38 H13          1.5550     2.4780    -0.2740 hn         1 3R1       0.444800
     39 H14         -0.5660     1.6230    -0.5700 ha         1 3R1       0.135000
     40 H15         -1.5190    -1.7920     1.8800 ha         1 3R1       0.175000
     41 H16          0.8440    -1.8810     2.4770 h4         1 3R1       0.021100
     42 H17         -2.6970     0.9450    -0.4390 hn         1 3R1       0.326500
     43 H18         -6.8710    -0.3730    -2.9020 ha         1 3R1       0.157000
     44 H19         -8.2040     1.3230    -1.6950 ha         1 3R1       0.146000
     45 H20         -7.4430     2.1870     0.4930 ha         1 3R1       0.157000
     46 C1           6.2760     3.5990    -1.0460 c3         1 3R1      -0.149400
     47 H1           4.0250    -3.7220    -0.8890 hc         1 3R1       0.043367
     48 H8           7.0770     3.7270    -0.3170 hc         1 3R1       0.052700
     49 H9           6.7480     3.4050    -2.0100 hc         1 3R1       0.052700
     50 H10          5.7220     4.5330    -1.1170 hc         1 3R1       0.052700
@<TRIPOS>BOND
     1     1     6 ar  
     2     1     8 ar  
     3     1    12 1   
     4     2     8 ar  
     5     2     9 ar  
     6     2    10 1   
     7     3     4 1   
     8     3    30 1   
     9     3    31 1   
    10     3    47 1   
    11     4     5 1   
    12     4    10 1   
    13     4    32 1   
    14     5    11 1   
    15     5    33 1   
    16     5    34 1   
    17     6     7 ar  
    18     6    35 1   
    19     7     9 ar  
    20     7    46 1   
    21    10    36 1   
    22    11    37 1   
    23    12    13 1   
    24    12    38 1   
    25    13    14 ar  
    26    13    18 ar  
    27    14    15 ar  
    28    14    39 1   
    29    15    16 ar  
    30    15    19 1   
    31    16    17 ar  
    32    16    40 1   
    33    17    18 ar  
    34    17    41 1   
    35    19    20 1   
    36    19    42 1   
    37    20    21 2   
    38    20    22 1   
    39    22    23 ar  
    40    22    27 ar  
    41    23    24 ar  
    42    23    29 1   
    43    24    25 ar  
    44    24    43 1   
    45    25    26 ar  
    46    25    44 1   
    47    26    27 ar  
    48    26    45 1   
    49    27    28 1   
    50    46    48 1   
    51    46    49 1   
    52    46    50 1   
@<TRIPOS>SUBSTRUCTURE
     1 3R1         1 TEMP              0 ****  ****    0 ROOT
