@<TRIPOS>MOLECULE
3R1
   50    52     1     0     0
SMALL
No Charge or Current Charge


@<TRIPOS>ATOM
      1 C4           3.2430     1.2340    -0.4910 ca         1 3R1       0.424900
      2 C6           5.2600     0.3140     0.0520 ca         1 3R1       0.416900
      3 C11          5.3100    -2.9210    -0.4280 c3         1 3R1      -0.109100
      4 C9           5.5260    -2.1140     0.8720 c3         1 3R1       0.244500
      5 C12          6.5280    -2.8110     1.8470 c3         1 3R1       0.148600
      6 C3           3.8950     2.4060    -0.8850 ca         1 3R1      -0.349000
      7 C2           5.2930     2.4430    -0.7740 ca         1 3R1       0.191300
      8 N5           3.9250     0.1840    -0.0090 nb         1 3R1      -0.275000
      9 N7           5.9820     1.3880    -0.3040 nb         1 3R1      -0.283000
     10 N8           5.9960    -0.7520     0.5410 nu         1 3R1      -0.915100
     11 O13          7.8820    -2.7860     1.3430 oh         1 3R1      -0.668000
     12 N14          1.8580     1.1850    -0.5740 nu         1 3R1      -0.918800
     13 C15          0.8930     0.2120    -0.4240 ca         1 3R1       0.637900
     14 C16         -0.4560     0.5840    -0.3970 ca         1 3R1      -0.283000
     15 C17         -1.4460    -0.3990    -0.2630 ca         1 3R1       0.047000
     16 C18         -1.0130    -1.7340    -0.1750 ca         1 3R1      -0.220000
     17 C19          0.3610    -2.0130    -0.2210 ca         1 3R1       0.385900
     18 N20          1.3030    -1.0570    -0.3460 nb         1 3R1      -0.688000
     19 N21         -2.8060     0.0080    -0.2340 ns         1 3R1      -0.134000
     20 C22         -3.9850    -0.6950    -0.0280 c          1 3R1       0.635700
     21 O23         -4.0230    -1.8960     0.2140 o          1 3R1      -0.537100
     22 C24         -5.2380     0.1370    -0.0720 ca         1 3R1      -0.155600
     23 C25         -6.3300    -0.2700    -0.8760 ca         1 3R1       0.151000
     24 C26         -7.5050     0.4980    -0.9250 ca         1 3R1      -0.105500
     25 C27         -7.6160     1.6760    -0.1730 ca         1 3R1      -0.077000
     26 C28         -6.5440     2.0850     0.6350 ca         1 3R1      -0.105500
     27 C29         -5.3630     1.3270     0.6900 ca         1 3R1       0.151000
     28 Cl1         -4.0980     1.8780     1.7910 cl         1 3R1      -0.171500
     29 Cl2         -6.2500    -1.7070    -1.8970 cl         1 3R1      -0.171500
     30 H2           4.5550    -2.4440    -1.0630 hc         1 3R1       0.043367
     31 H3           6.2410    -3.0020    -1.0010 hc         1 3R1       0.043367
     32 H4           4.5620    -2.0570     1.4000 h1         1 3R1       0.091700
     33 H5           6.4840    -2.2960     2.8170 h1         1 3R1       0.029200
     34 H6           6.2020    -3.8460     2.0150 h1         1 3R1       0.029200
     35 H7           3.3430     3.2590    -1.2680 ha         1 3R1       0.125000
     36 H11          7.0080    -0.6220     0.5480 hn         1 3R1       0.511000
     37 H12          8.4430    -3.2470     2.0060 ho         1 3R1       0.445000
     38 H13          1.4490     2.0840    -0.7970 hn         1 3R1       0.500000
     39 H14         -0.7320     1.6320    -0.4730 ha         1 3R1       0.117000
     40 H15         -1.7030    -2.5650    -0.0790 ha         1 3R1       0.157000
     41 H16          0.7200    -3.0400    -0.1590 h4         1 3R1       0.021100
     42 H17         -2.9390     0.9970    -0.3920 hn         1 3R1       0.160000
     43 H18         -8.3320     0.1800    -1.5560 ha         1 3R1       0.139000
     44 H19         -8.5290     2.2680    -0.2120 ha         1 3R1       0.128000
     45 H20         -6.6320     2.9910     1.2300 ha         1 3R1       0.139000
     46 C1           6.0920     3.6660    -1.1850 c3         1 3R1      -0.149400
     47 H1           4.9620    -3.9340    -0.1950 hc         1 3R1       0.043367
     48 H8           6.9460     3.8280    -0.5170 hc         1 3R1       0.052700
     49 H9           6.4780     3.5530    -2.2040 hc         1 3R1       0.052700
     50 H10          5.4750     4.5720    -1.1570 hc         1 3R1       0.052700
@<TRIPOS>BOND
     1     1     6 ar  
     2     1     8 ar  
     3     1    12 1   
     4     2     8 ar  
     5     2     9 ar  
     6     2    10 1   
     7     3     4 1   
     8     3    30 1   
     9     3    31 1   
    10     3    47 1   
    11     4     5 1   
    12     4    10 1   
    13     4    32 1   
    14     5    11 1   
    15     5    33 1   
    16     5    34 1   
    17     6     7 ar  
    18     6    35 1   
    19     7     9 ar  
    20     7    46 1   
    21    10    36 1   
    22    11    37 1   
    23    12    13 1   
    24    12    38 1   
    25    13    14 ar  
    26    13    18 ar  
    27    14    15 ar  
    28    14    39 1   
    29    15    16 ar  
    30    15    19 1   
    31    16    17 ar  
    32    16    40 1   
    33    17    18 ar  
    34    17    41 1   
    35    19    20 1   
    36    19    42 1   
    37    20    21 2   
    38    20    22 1   
    39    22    23 ar  
    40    22    27 ar  
    41    23    24 ar  
    42    23    29 1   
    43    24    25 ar  
    44    24    43 1   
    45    25    26 ar  
    46    25    44 1   
    47    26    27 ar  
    48    26    45 1   
    49    27    28 1   
    50    46    48 1   
    51    46    49 1   
    52    46    50 1   
@<TRIPOS>SUBSTRUCTURE
     1 3R1         1 TEMP              0 ****  ****    0 ROOT
