@<TRIPOS>MOLECULE
3R2
   60    62     1     0     0
SMALL
No Charge or Current Charge


@<TRIPOS>ATOM
      1 O4           5.7800     3.5350     0.4260 o          1 3R2      -0.563000
      2 C4           4.8560     2.7850     0.1570 c          1 3R2       0.598200
      3 N3           4.9920     1.4410     0.2720 ns         1 3R2      -0.466500
      4 C2           4.0760     0.4700     0.0170 c          1 3R2       0.625000
      5 O2           4.3920    -0.7020     0.1360 o          1 3R2      -0.532000
      6 C5           3.5250     3.2200    -0.3160 cc         1 3R2      -0.297400
      7 C5M          3.3270     4.7100    -0.4730 c3         1 3R2      -0.007900
      8 C6           2.5530     2.2810    -0.5840 cd         1 3R2       0.022600
      9 N1           2.8080     0.9220    -0.4100 n          1 3R2      -0.313000
     10 C1C          1.6950    -0.0340    -0.6470 c5         1 3R2       0.349700
     11 O4C          1.6590    -1.1300     0.2810 os         1 3R2      -0.404000
     12 C2C          1.8750    -0.6480    -2.0710 c5         1 3R2      -0.153400
     13 C3C          2.0270    -2.1630    -1.7580 c5         1 3R2       0.126300
     14 O3C          1.5400    -2.9760    -2.8300 oh         1 3R2      -0.705000
     15 C4C          1.1750    -2.2690    -0.4580 c5         1 3R2       0.166300
     16 C5C          1.3720    -3.5910     0.3440 c3         1 3R2       0.225600
     17 O5C          0.1850    -3.9630     1.0770 os         1 3R2      -0.568400
     18 PA          -0.3790    -3.1030     2.3240 p5         1 3R2       1.455800
     19 O1A         -1.3000    -3.9750     3.1130 o          1 3R2      -0.848500
     20 O2A          0.7590    -2.5930     3.1470 o          1 3R2      -0.848500
     21 O3A         -1.1270    -2.0020     1.4830 os         1 3R2      -0.687800
     22 PB          -2.1300    -1.1260     2.3240 p5         1 3R2       1.448800
     23 O1B         -3.4860    -1.7380     2.4550 o          1 3R2      -0.851000
     24 O2B         -1.5950    -0.6470     3.6330 o          1 3R2      -0.851000
     25 O3B         -2.1690     0.1170     1.2960 os         1 3R2      -0.580400
     26 C1          -2.9590     0.0260     0.1020 c6         1 3R2       0.240300
     27 C9          -2.1100     0.4190    -1.1290 c6         1 3R2      -0.103400
     28 C3          -1.6920     1.9070    -1.0480 c6         1 3R2       0.131300
     29 O3          -0.8850     2.2570    -2.1870 oh         1 3R2      -0.708000
     30 C8          -2.9530     2.8270    -0.9550 c6         1 3R2       0.182300
     31 O6          -2.5260     4.1920    -0.8740 oh         1 3R2      -0.673000
     32 C10         -3.8470     2.4410     0.2670 c6         1 3R2      -0.053700
     33 C11         -5.1330     3.3110     0.3620 c3         1 3R2      -0.074100
     34 C7          -4.2150     0.9260     0.2200 c6         1 3R2      -0.094400
     35 H1           5.8940     1.1170     0.5800 hn         1 3R2       0.339500
     36 H2           4.0370     5.1270    -1.1970 hc         1 3R2       0.035367
     37 H3           2.3160     4.9410    -0.8290 hc         1 3R2       0.035367
     38 H4           3.4700     5.2290     0.4820 hc         1 3R2       0.035367
     39 H5           1.5510     2.5170    -0.9360 h4         1 3R2       0.197000
     40 H6           0.7600     0.5330    -0.5820 h2         1 3R2       0.044700
     41 H7           0.9880    -0.4430    -2.6810 hc         1 3R2       0.051200
     42 H8           2.7390    -0.2510    -2.6150 hc         1 3R2       0.051200
     43 H9           3.0760    -2.4080    -1.5320 h1         1 3R2       0.072700
     44 H10          2.1000    -2.7820    -3.6180 ho         1 3R2       0.488000
     45 H11          0.1110    -2.1370    -0.6930 h1         1 3R2       0.070700
     46 H12          1.6130    -4.3910    -0.3670 h1         1 3R2       0.031200
     47 H13          2.2350    -3.4870     1.0150 h1         1 3R2       0.031200
     48 H16         -3.2880    -1.0150    -0.0400 h1         1 3R2       0.035700
     49 H17         -1.2280    -0.2290    -1.1900 hc         1 3R2       0.034200
     50 H18         -2.6890     0.2390    -2.0450 hc         1 3R2       0.034200
     51 H19         -1.1060     2.0450    -0.1260 h1         1 3R2       0.080700
     52 H20         -1.3680     1.9500    -2.9860 ho         1 3R2       0.439000
     53 H21         -3.5470     2.6860    -1.8700 h1         1 3R2       0.012700
     54 H22         -1.7190     4.2290    -1.4350 ho         1 3R2       0.436000
     55 H23         -3.2760     2.6310     1.1870 hc         1 3R2       0.098700
     56 H24         -5.7510     3.2070    -0.5380 hc         1 3R2       0.021700
     57 H25         -5.7450     3.0170     1.2230 hc         1 3R2       0.021700
     58 H26         -4.8930     4.3740     0.4810 hc         1 3R2       0.021700
     59 H27         -4.8770     0.7320    -0.6360 hc         1 3R2       0.046700
     60 H28         -4.7850     0.6470     1.1160 hc         1 3R2       0.046700
@<TRIPOS>BOND
     1     1     2 2   
     2     2     3 1   
     3     2     6 1   
     4     3     4 1   
     5     3    35 1   
     6     4     5 2   
     7     4     9 1   
     8     6     7 1   
     9     6     8 2   
    10     7    36 1   
    11     7    37 1   
    12     7    38 1   
    13     8     9 1   
    14     8    39 1   
    15     9    10 1   
    16    10    11 1   
    17    10    12 1   
    18    10    40 1   
    19    11    15 1   
    20    12    13 1   
    21    12    41 1   
    22    12    42 1   
    23    13    14 1   
    24    13    15 1   
    25    13    43 1   
    26    14    44 1   
    27    15    16 1   
    28    15    45 1   
    29    16    17 1   
    30    16    46 1   
    31    16    47 1   
    32    17    18 1   
    33    18    19 1   
    34    18    20 1   
    35    18    21 1   
    36    21    22 1   
    37    22    23 1   
    38    22    24 1   
    39    22    25 1   
    40    25    26 1   
    41    26    27 1   
    42    26    34 1   
    43    26    48 1   
    44    27    28 1   
    45    27    49 1   
    46    27    50 1   
    47    28    29 1   
    48    28    30 1   
    49    28    51 1   
    50    29    52 1   
    51    30    31 1   
    52    30    32 1   
    53    30    53 1   
    54    31    54 1   
    55    32    33 1   
    56    32    34 1   
    57    32    55 1   
    58    33    56 1   
    59    33    57 1   
    60    33    58 1   
    61    34    59 1   
    62    34    60 1   
@<TRIPOS>SUBSTRUCTURE
     1 3R2         1 TEMP              0 ****  ****    0 ROOT
