@<TRIPOS>MOLECULE
3R2
   60    62     1     0     0
SMALL
abcg2


@<TRIPOS>ATOM
      1 O4           5.7050     3.5460     2.0260 o          1 3R2      -0.563000
      2 C4           5.3470     2.7310     1.1960 c          1 3R2       0.598200
      3 N3           5.1600     1.4060     1.5440 ns         1 3R2      -0.466500
      4 C2           4.7690     0.3660     0.7410 c          1 3R2       0.625000
      5 O2           4.6390    -0.7600     1.1710 o          1 3R2      -0.532000
      6 C5           5.0780     3.0240    -0.1970 cc         1 3R2      -0.297400
      7 C5M          5.2380     4.4270    -0.6830 c3         1 3R2      -0.007900
      8 C6           4.6940     2.0090    -0.9900 cd         1 3R2       0.022600
      9 N1           4.5490     0.7110    -0.5720 n          1 3R2      -0.313000
     10 C1C          4.0820    -0.2960    -1.5270 c5         1 3R2       0.349700
     11 O4C          2.7970    -0.7140    -1.1690 os         1 3R2      -0.404000
     12 C2C          4.9520    -1.5470    -1.6700 c5         1 3R2      -0.153400
     13 C3C          4.1050    -2.6850    -1.1010 c5         1 3R2       0.126300
     14 O3C          4.1700    -3.8860    -1.8310 oh         1 3R2      -0.705000
     15 C4C          2.6830    -2.1270    -1.1960 c5         1 3R2       0.166300
     16 C5C          1.7990    -2.5950    -0.0670 c3         1 3R2       0.225600
     17 O5C          0.4720    -2.1690    -0.2940 os         1 3R2      -0.568400
     18 PA          -0.5350    -2.1540     1.0120 p5         1 3R2       1.455800
     19 O1A         -0.8200    -3.5590     1.4410 o          1 3R2      -0.848500
     20 O2A         -0.0460    -1.1450     2.0010 o          1 3R2      -0.848500
     21 O3A         -1.7960    -1.5510     0.1510 os         1 3R2      -0.687800
     22 PB          -3.3590    -1.6860     0.6410 p5         1 3R2       1.448800
     23 O1B         -4.0090    -2.8370    -0.0640 o          1 3R2      -0.851000
     24 O2B         -3.4570    -1.5700     2.1310 o          1 3R2      -0.851000
     25 O3B         -3.8230    -0.2820    -0.0720 os         1 3R2      -0.580400
     26 C1          -5.1610     0.1530     0.1530 c6         1 3R2       0.240300
     27 C9          -5.7430     0.6410    -1.1650 c6         1 3R2      -0.103400
     28 C3          -5.0510     1.9040    -1.6600 c6         1 3R2       0.131300
     29 O3          -5.6660     2.4160    -2.8300 oh         1 3R2      -0.708000
     30 C8          -5.1140     3.0060    -0.6080 c6         1 3R2       0.182300
     31 O6          -4.4470     4.1680    -1.0520 oh         1 3R2      -0.673000
     32 C10         -4.4860     2.5440     0.7040 c6         1 3R2      -0.053700
     33 C11         -4.5400     3.6260     1.7760 c3         1 3R2      -0.074100
     34 C7          -5.1790     1.2700     1.1870 c6         1 3R2      -0.094400
     35 H1           5.3310     1.1610     2.5120 hn         1 3R2       0.339500
     36 H2           6.2550     4.7870    -0.5260 hc         1 3R2       0.035367
     37 H3           5.0190     4.4980    -1.7480 hc         1 3R2       0.035367
     38 H4           4.5690     5.1100    -0.1590 hc         1 3R2       0.035367
     39 H5           4.4760     2.1750    -2.0360 h4         1 3R2       0.197000
     40 H6           4.0500     0.2390    -2.4790 h2         1 3R2       0.044700
     41 H7           5.1190    -1.7300    -2.7330 hc         1 3R2       0.051200
     42 H8           5.9280    -1.4470    -1.1980 hc         1 3R2       0.051200
     43 H9           4.3670    -2.8590    -0.0550 h1         1 3R2       0.072700
     44 H10          4.9690    -4.3510    -1.5690 ho         1 3R2       0.488000
     45 H11          2.2530    -2.4410    -2.1580 h1         1 3R2       0.070700
     46 H12          1.8550    -3.6890    -0.0210 h1         1 3R2       0.031200
     47 H13          2.1940    -2.2000     0.8750 h1         1 3R2       0.031200
     48 H16         -5.7820    -0.6750     0.5150 h1         1 3R2       0.035700
     49 H17         -5.6760    -0.1490    -1.9190 hc         1 3R2       0.034200
     50 H18         -6.8080     0.8500    -1.0170 hc         1 3R2       0.034200
     51 H19         -3.9930     1.6840    -1.8570 h1         1 3R2       0.080700
     52 H20         -5.4470     1.8380    -3.5670 ho         1 3R2       0.439000
     53 H21         -6.1790     3.2270    -0.4160 h1         1 3R2       0.012700
     54 H22         -4.7720     4.3680    -1.9370 ho         1 3R2       0.436000
     55 H23         -3.4340     2.3080     0.5080 hc         1 3R2       0.098700
     56 H24         -5.5700     3.9120     1.9980 hc         1 3R2       0.021700
     57 H25         -4.0920     3.2650     2.7040 hc         1 3R2       0.021700
     58 H26         -3.9990     4.5230     1.4790 hc         1 3R2       0.021700
     59 H27         -6.2230     1.4960     1.4310 hc         1 3R2       0.046700
     60 H28         -4.7130     0.9190     2.1100 hc         1 3R2       0.046700
@<TRIPOS>BOND
     1     1     2 2   
     2     2     3 1   
     3     2     6 1   
     4     3     4 1   
     5     3    35 1   
     6     4     5 2   
     7     4     9 1   
     8     6     7 1   
     9     6     8 2   
    10     7    36 1   
    11     7    37 1   
    12     7    38 1   
    13     8     9 1   
    14     8    39 1   
    15     9    10 1   
    16    10    11 1   
    17    10    12 1   
    18    10    40 1   
    19    11    15 1   
    20    12    13 1   
    21    12    41 1   
    22    12    42 1   
    23    13    14 1   
    24    13    15 1   
    25    13    43 1   
    26    14    44 1   
    27    15    16 1   
    28    15    45 1   
    29    16    17 1   
    30    16    46 1   
    31    16    47 1   
    32    17    18 1   
    33    18    19 1   
    34    18    20 1   
    35    18    21 1   
    36    21    22 1   
    37    22    23 1   
    38    22    24 1   
    39    22    25 1   
    40    25    26 1   
    41    26    27 1   
    42    26    34 1   
    43    26    48 1   
    44    27    28 1   
    45    27    49 1   
    46    27    50 1   
    47    28    29 1   
    48    28    30 1   
    49    28    51 1   
    50    29    52 1   
    51    30    31 1   
    52    30    32 1   
    53    30    53 1   
    54    31    54 1   
    55    32    33 1   
    56    32    34 1   
    57    32    55 1   
    58    33    56 1   
    59    33    57 1   
    60    33    58 1   
    61    34    59 1   
    62    34    60 1   
@<TRIPOS>SUBSTRUCTURE
     1 3R2         1 TEMP              0 ****  ****    0 ROOT
