@<TRIPOS>MOLECULE
3R4
   17    18     1     0     0
SMALL
No Charge or Current Charge


@<TRIPOS>ATOM
      1 C13          0.7600     0.7730    -0.0020 cc         1 3R4       0.069800
      2 O01          3.6640     0.3370    -0.0020 o          1 3R4      -0.691500
      3 C02          2.9200    -0.6330    -0.0110 c          1 3R4       0.732200
      4 O03          3.3540    -1.7770    -0.0210 o          1 3R4      -0.691500
      5 C04          1.4380    -0.4470    -0.0120 cd         1 3R4      -0.054600
      6 S05          0.3340    -1.8570    -0.0260 ss         1 3R4       0.125400
      7 C06         -1.0470    -0.7460    -0.0190 ca         1 3R4      -0.188000
      8 C07         -2.3980    -1.1300    -0.0240 ca         1 3R4      -0.123000
      9 C08         -3.3840    -0.1260    -0.0170 ca         1 3R4       0.142000
     10 F09         -4.6910    -0.4680    -0.0220 f          1 3R4      -0.202000
     11 C10         -3.0180     1.2340    -0.0040 ca         1 3R4      -0.175000
     12 C11         -1.6560     1.5990     0.0010 ca         1 3R4      -0.051000
     13 C12         -0.6780     0.5860    -0.0060 ca         1 3R4      -0.073800
     14 Cl14         1.4570     2.3750     0.0130 cl         1 3R4      -0.173000
     15 H2          -2.6810    -2.1800    -0.0340 ha         1 3R4       0.124000
     16 H3          -3.7870     2.0020     0.0010 ha         1 3R4       0.112000
     17 H4          -1.3740     2.6490     0.0110 ha         1 3R4       0.117000
@<TRIPOS>BOND
     1     1     5 2   
     2     1    13 1   
     3     1    14 1   
     4     2     3 1   
     5     3     4 1   
     6     3     5 1   
     7     5     6 1   
     8     6     7 1   
     9     7     8 ar  
    10     7    13 ar  
    11     8     9 ar  
    12     8    15 1   
    13     9    10 1   
    14     9    11 ar  
    15    11    12 ar  
    16    11    16 1   
    17    12    13 ar  
    18    12    17 1   
@<TRIPOS>SUBSTRUCTURE
     1 3R4         1 TEMP              0 ****  ****    0 ROOT
