@<TRIPOS>MOLECULE
3R4
   17    18     1     0     0
SMALL
bcc


@<TRIPOS>ATOM
      1 C13          0.7460     0.8020    -0.0050 cc         1 3R4      -0.005800
      2 O01          3.7010     0.2810     0.0100 o          1 3R4      -0.796800
      3 C02          2.9150    -0.6750    -0.0090 c          1 3R4       0.942800
      4 O03          3.1670    -1.8960    -0.0250 o          1 3R4      -0.796800
      5 C04          1.4380    -0.3620    -0.0130 cd         1 3R4      -0.054600
      6 S05          0.3720    -1.7350    -0.0260 ss         1 3R4      -0.001500
      7 C06         -1.0290    -0.7200    -0.0200 ca         1 3R4      -0.061100
      8 C07         -2.3600    -1.1310    -0.0250 ca         1 3R4      -0.141000
      9 C08         -3.3160    -0.1430    -0.0160 ca         1 3R4       0.106900
     10 F09         -4.6090    -0.5010    -0.0200 f          1 3R4      -0.166900
     11 C10         -3.0090     1.2170    -0.0030 ca         1 3R4      -0.193000
     12 C11         -1.6880     1.6090     0.0010 ca         1 3R4      -0.069000
     13 C12         -0.6800     0.6400    -0.0080 ca         1 3R4      -0.073800
     14 CL14         1.4400     2.3710     0.0040 cl         1 3R4      -0.097400
     15 H2          -2.6360    -2.1770    -0.0340 ha         1 3R4       0.142000
     16 H3          -3.8040     1.9500     0.0040 ha         1 3R4       0.130000
     17 H4          -1.4370     2.6620     0.0110 ha         1 3R4       0.135000
@<TRIPOS>BOND
     1     1     5 2   
     2     1    13 1   
     3     1    14 1   
     4     2     3 1   
     5     3     4 1   
     6     3     5 1   
     7     5     6 1   
     8     6     7 1   
     9     7     8 ar  
    10     7    13 ar  
    11     8     9 ar  
    12     8    15 1   
    13     9    10 1   
    14     9    11 ar  
    15    11    12 ar  
    16    11    16 1   
    17    12    13 ar  
    18    12    17 1   
@<TRIPOS>SUBSTRUCTURE
     1 3R4         1 TEMP              0 ****  ****    0 ROOT
