@<TRIPOS>MOLECULE
3R5
   31    32     1     0     0
SMALL
No Charge or Current Charge


@<TRIPOS>ATOM
      1 C1          -0.8910    -2.3410    -0.0560 c          1 3R5       0.590500
      2 C2          -1.5380    -0.9820    -0.0330 ca         1 3R5      -0.198600
      3 C3          -0.7460     0.1840    -0.0120 ca         1 3R5       0.148100
      4 C4          -1.3680     1.4520     0.0080 ca         1 3R5      -0.180000
      5 C5          -2.7700     1.5590     0.0080 ca         1 3R5      -0.130000
      6 C6          -3.5670     0.3940    -0.0130 ca         1 3R5       0.092100
      7 C7          -2.9470    -0.8660    -0.0330 ca         1 3R5      -0.055000
      8 O8          -4.9470     0.4370    -0.0140 os         1 3R5      -0.337100
      9 C9          -5.6780     1.6770     0.0060 c3         1 3R5       0.148900
     10 O10          0.6280     0.0460    -0.0120 os         1 3R5      -0.347100
     11 C11          1.5180     1.1740     0.0020 c3         1 3R5       0.218900
     12 C12          2.9420     0.6490    -0.0090 ca         1 3R5      -0.151300
     13 C13          3.6450     0.4800     1.1990 ca         1 3R5       0.353900
     14 N14          4.9160     0.0160     1.2580 nb         1 3R5      -0.664000
     15 C15          5.5270    -0.2990     0.0920 ca         1 3R5       0.345900
     16 C16          4.9000    -0.1640    -1.1580 ca         1 3R5      -0.167000
     17 C17          3.5830     0.3180    -1.2170 ca         1 3R5      -0.046000
     18 O18         -1.5340    -3.3870    -0.0740 o          1 3R5      -0.526100
     19 H1           0.2200    -2.3700    -0.0550 h4         1 3R5       0.009200
     20 H4          -0.7840     2.3670     0.0250 ha         1 3R5       0.118000
     21 H5          -3.2180     2.5490     0.0240 ha         1 3R5       0.118000
     22 H7          -3.5720    -1.7560    -0.0490 ha         1 3R5       0.150000
     23 H9          -5.4410     2.2550     0.9080 h1         1 3R5       0.040700
     24 H9A         -5.4390     2.2850    -0.8760 h1         1 3R5       0.040700
     25 H9B         -6.7580     1.4810     0.0010 h1         1 3R5       0.040700
     26 H11          1.3550     1.8080    -0.8800 h1         1 3R5       0.045200
     27 H11A         1.3560     1.7850     0.9000 h1         1 3R5       0.045200
     28 H13          3.1780     0.7240     2.1520 h4         1 3R5       0.019100
     29 H15          6.5490    -0.6700     0.1630 h4         1 3R5       0.022100
     30 H16          5.4340    -0.4330    -2.0650 ha         1 3R5       0.127000
     31 H17          3.0730     0.4290    -2.1720 ha         1 3R5       0.126000
@<TRIPOS>BOND
     1     1     2 1   
     2     1    18 2   
     3     1    19 1   
     4     2     3 ar  
     5     2     7 ar  
     6     3     4 ar  
     7     3    10 1   
     8     4     5 ar  
     9     4    20 1   
    10     5     6 ar  
    11     5    21 1   
    12     6     7 ar  
    13     6     8 1   
    14     7    22 1   
    15     8     9 1   
    16     9    23 1   
    17     9    24 1   
    18     9    25 1   
    19    10    11 1   
    20    11    12 1   
    21    11    26 1   
    22    11    27 1   
    23    12    13 ar  
    24    12    17 ar  
    25    13    14 ar  
    26    13    28 1   
    27    14    15 ar  
    28    15    16 ar  
    29    15    29 1   
    30    16    17 ar  
    31    16    30 1   
    32    17    31 1   
@<TRIPOS>SUBSTRUCTURE
     1 3R5         1 TEMP              0 ****  ****    0 ROOT
