@<TRIPOS>MOLECULE
3R5
   31    32     1     0     0
SMALL
abcg2


@<TRIPOS>ATOM
      1 C1          -0.9020    -2.2840    -0.3320 c          1 3R5       0.590500
      2 C2          -1.5100    -0.9500    -0.1880 ca         1 3R5      -0.198600
      3 C3          -0.7130     0.1970    -0.0250 ca         1 3R5       0.148100
      4 C4          -1.3360     1.4330     0.0990 ca         1 3R5      -0.180000
      5 C5          -2.7210     1.5340     0.0680 ca         1 3R5      -0.130000
      6 C6          -3.5160     0.4010    -0.0850 ca         1 3R5       0.092100
      7 C7          -2.8950    -0.8330    -0.2150 ca         1 3R5      -0.055000
      8 O8          -4.8650     0.4110    -0.1170 os         1 3R5      -0.337100
      9 C9          -5.5300     1.6450     0.0580 c3         1 3R5       0.148900
     10 O10          0.6200     0.0160     0.0070 os         1 3R5      -0.347100
     11 C11          1.4650     1.1510     0.1160 c3         1 3R5       0.218900
     12 C12          2.8790     0.6640     0.0660 ca         1 3R5      -0.151300
     13 C13          3.7470     0.8840     1.1270 ca         1 3R5       0.353900
     14 N14          5.0150     0.4880     1.1420 nb         1 3R5      -0.664000
     15 C15          5.4710    -0.1640     0.0810 ca         1 3R5       0.345900
     16 C16          4.6900    -0.4440    -1.0330 ca         1 3R5      -0.167000
     17 C17          3.3730    -0.0190    -1.0400 ca         1 3R5      -0.046000
     18 O18         -1.5450    -3.2990    -0.4840 o          1 3R5      -0.526100
     19 H1           0.1960    -2.3240    -0.2960 h4         1 3R5       0.009200
     20 H4          -0.7620     2.3400     0.2250 ha         1 3R5       0.118000
     21 H5          -3.1580     2.5190     0.1710 ha         1 3R5       0.118000
     22 H7          -3.5000    -1.7230    -0.3390 ha         1 3R5       0.150000
     23 H9          -5.2830     2.1100     1.0160 h1         1 3R5       0.040700
     24 H9A         -5.3010     2.3520    -0.7440 h1         1 3R5       0.040700
     25 H9B         -6.5950     1.4280     0.0380 h1         1 3R5       0.040700
     26 H11          1.2720     1.8470    -0.7070 h1         1 3R5       0.045200
     27 H11A         1.2790     1.6860     1.0530 h1         1 3R5       0.045200
     28 H13          3.3970     1.4110     2.0100 h4         1 3R5       0.019100
     29 H15          6.5070    -0.4810     0.1130 h4         1 3R5       0.022100
     30 H16          5.1100    -0.9780    -1.8740 ha         1 3R5       0.127000
     31 H17          2.7380    -0.2150    -1.8960 ha         1 3R5       0.126000
@<TRIPOS>BOND
     1     1     2 1   
     2     1    18 2   
     3     1    19 1   
     4     2     3 ar  
     5     2     7 ar  
     6     3     4 ar  
     7     3    10 1   
     8     4     5 ar  
     9     4    20 1   
    10     5     6 ar  
    11     5    21 1   
    12     6     7 ar  
    13     6     8 1   
    14     7    22 1   
    15     8     9 1   
    16     9    23 1   
    17     9    24 1   
    18     9    25 1   
    19    10    11 1   
    20    11    12 1   
    21    11    26 1   
    22    11    27 1   
    23    12    13 ar  
    24    12    17 ar  
    25    13    14 ar  
    26    13    28 1   
    27    14    15 ar  
    28    15    16 ar  
    29    15    29 1   
    30    16    17 ar  
    31    16    30 1   
    32    17    31 1   
@<TRIPOS>SUBSTRUCTURE
     1 3R5         1 TEMP              0 ****  ****    0 ROOT
