@<TRIPOS>MOLECULE
3R6
   19    19     1     0     0
SMALL
abcg2


@<TRIPOS>ATOM
      1 C01          3.8410    -0.1630     0.5280 c3         1 3R6       0.038900
      2 S02          2.9860    -0.3920    -1.0560 ss         1 3R6      -0.258000
      3 C03          1.4000     0.3070    -0.6950 ca         1 3R6      -0.214000
      4 C04          1.1780     1.6780    -0.8440 ca         1 3R6      -0.034000
      5 C05         -0.0620     2.2270    -0.5870 ca         1 3R6      -0.231000
      6 C06         -1.1250     1.4100    -0.1810 ca         1 3R6       0.238100
      7 O07         -2.3140     1.9460     0.0570 oh         1 3R6      -0.628100
      8 C08         -0.9140     0.0240    -0.0330 ca         1 3R6      -0.291600
      9 C09          0.3460    -0.5020    -0.2940 ca         1 3R6       0.017000
     10 C10         -2.0500    -0.8680     0.4010 c          1 3R6       0.725600
     11 O11         -1.8570    -2.0790     0.5240 o          1 3R6      -0.694500
     12 O12         -3.1560    -0.2760     0.6130 o          1 3R6      -0.694500
     13 H1           3.3450    -0.7150     1.3230 h1         1 3R6       0.048033
     14 H2           4.8530    -0.5480     0.4080 h1         1 3R6       0.048033
     15 H3           3.8970     0.8910     0.7920 h1         1 3R6       0.048033
     16 H4           1.9890     2.3210    -1.1640 ha         1 3R6       0.093000
     17 H5          -0.2240     3.2910    -0.7040 ha         1 3R6       0.104000
     18 H6          -2.8870     1.1320     0.3310 ho         1 3R6       0.552000
     19 H7           0.4990    -1.5680    -0.1790 ha         1 3R6       0.132000
@<TRIPOS>BOND
     1     1     2 1   
     2     1    13 1   
     3     1    14 1   
     4     1    15 1   
     5     2     3 1   
     6     3     4 ar  
     7     3     9 ar  
     8     4     5 ar  
     9     4    16 1   
    10     5     6 ar  
    11     5    17 1   
    12     6     7 1   
    13     6     8 ar  
    14     7    18 1   
    15     8     9 ar  
    16     8    10 1   
    17     9    19 1   
    18    10    11 1   
    19    10    12 1   
@<TRIPOS>SUBSTRUCTURE
     1 3R6         1 TEMP              0 ****  ****    0 ROOT
