@<TRIPOS>MOLECULE
3R6
   19    19     1     0     0
SMALL
No Charge or Current Charge


@<TRIPOS>ATOM
      1 C01          4.2060     0.2450     0.0160 c3         1 3R6       0.038900
      2 S02          2.8330    -0.9940    -0.0130 ss         1 3R6      -0.258000
      3 C03          1.3090    -0.0410    -0.0300 ca         1 3R6      -0.214000
      4 C04          1.2960     1.3670    -0.0230 ca         1 3R6      -0.034000
      5 C05          0.0720     2.0510    -0.0370 ca         1 3R6      -0.231000
      6 C06         -1.1370     1.3450    -0.0600 ca         1 3R6       0.238100
      7 O07         -2.2990     2.0430    -0.0740 oh         1 3R6      -0.628100
      8 C08         -1.1500    -0.0650    -0.0680 ca         1 3R6      -0.291600
      9 C09          0.0900    -0.7460    -0.0530 ca         1 3R6       0.017000
     10 C10         -2.4410    -0.8480    -0.0930 c          1 3R6       0.725600
     11 O11         -2.3870    -2.0670    -0.0990 o          1 3R6      -0.694500
     12 O12         -3.4920    -0.2210    -0.1050 o          1 3R6      -0.694500
     13 H1           4.1270     0.8680     0.9150 h1         1 3R6       0.048033
     14 H2           5.1700    -0.2790     0.0270 h1         1 3R6       0.048033
     15 H3           4.1550     0.8790    -0.8780 h1         1 3R6       0.048033
     16 H4           2.2160     1.9440    -0.0050 ha         1 3R6       0.093000
     17 H5           0.0630     3.1380    -0.0310 ha         1 3R6       0.104000
     18 H6          -3.0020     1.3310    -0.0890 ho         1 3R6       0.552000
     19 H7           0.1170    -1.8340    -0.0590 ha         1 3R6       0.132000
@<TRIPOS>BOND
     1     1     2 1   
     2     1    13 1   
     3     1    14 1   
     4     1    15 1   
     5     2     3 1   
     6     3     4 ar  
     7     3     9 ar  
     8     4     5 ar  
     9     4    16 1   
    10     5     6 ar  
    11     5    17 1   
    12     6     7 1   
    13     6     8 ar  
    14     7    18 1   
    15     8     9 ar  
    16     8    10 1   
    17     9    19 1   
    18    10    11 1   
    19    10    12 1   
@<TRIPOS>SUBSTRUCTURE
     1 3R6         1 TEMP              0 ****  ****    0 ROOT
