@<TRIPOS>MOLECULE
3R7
   33    34     1     0     0
SMALL
abcg2


@<TRIPOS>ATOM
      1 C10         -1.3850     0.8700    -0.7990 ca         1 3R7      -0.157000
      2 C11         -0.8890    -0.4250    -0.6650 ca         1 3R7       0.293000
      3 O01         -0.0320    -3.1270    -0.2870 o          1 3R7      -0.688500
      4 C02         -0.9860    -2.7380     0.4490 c          1 3R7       0.718600
      5 O03         -1.5400    -3.4210     1.3150 o          1 3R7      -0.688500
      6 C04         -1.4820    -1.3170     0.2430 ca         1 3R7      -0.170600
      7 C05         -2.5720    -0.8630     0.9820 ca         1 3R7      -0.070000
      8 C06         -3.0620     0.4210     0.8550 ca         1 3R7      -0.137000
      9 C07         -2.4660     1.3110    -0.0420 ca         1 3R7      -0.060800
     10 C08         -2.9340     2.6880    -0.2350 ce         1 3R7      -0.130200
     11 C09         -3.9790     3.2630     0.3580 c2         1 3R7      -0.348000
     12 N12          0.1830    -0.8960    -1.4420 nu         1 3R7      -0.920100
     13 S13          1.5610    -0.0320    -1.6590 sy         1 3R7       1.147600
     14 O14          2.5440    -0.9970    -2.1260 o          1 3R7      -0.565000
     15 O15          1.2960     1.1430    -2.4770 o          1 3R7      -0.565000
     16 C16          2.0270     0.5270    -0.0410 ca         1 3R7      -0.286500
     17 C17          2.0880     1.8830     0.2400 ca         1 3R7      -0.008500
     18 C18          2.4500     2.2880     1.5180 ca         1 3R7      -0.138500
     19 C19          2.7360     1.3450     2.4940 ca         1 3R7      -0.074000
     20 C20          2.6650    -0.0120     2.2000 ca         1 3R7      -0.138500
     21 C21          2.3110    -0.4290     0.9280 ca         1 3R7      -0.008500
     22 H1          -0.9410     1.5470    -1.5170 ha         1 3R7       0.124000
     23 H3          -3.0400    -1.5420     1.6830 ha         1 3R7       0.130000
     24 H4          -3.9090     0.7270     1.4550 ha         1 3R7       0.096000
     25 H5          -2.3540     3.2770    -0.9390 ha         1 3R7       0.164000
     26 H6          -4.2370     4.2910     0.1440 ha         1 3R7       0.152500
     27 H7          -4.6140     2.7470     1.0670 ha         1 3R7       0.152500
     28 H8           0.3420    -1.9120    -1.1670 hn         1 3R7       0.585000
     29 H9           1.8640     2.6190    -0.5200 ha         1 3R7       0.140000
     30 H10          2.5040     3.3440     1.7490 ha         1 3R7       0.107500
     31 H11          3.0160     1.6660     3.4890 ha         1 3R7       0.099000
     32 H12          2.8870    -0.7470     2.9620 ha         1 3R7       0.107500
     33 H13          2.2470    -1.4870     0.7050 ha         1 3R7       0.140000
@<TRIPOS>BOND
     1     1     2 ar  
     2     1     9 ar  
     3     1    22 1   
     4     2     6 ar  
     5     2    12 1   
     6     3     4 1   
     7     4     5 1   
     8     4     6 1   
     9     6     7 ar  
    10     7     8 ar  
    11     7    23 1   
    12     8     9 ar  
    13     8    24 1   
    14     9    10 1   
    15    10    11 2   
    16    10    25 1   
    17    11    26 1   
    18    11    27 1   
    19    12    13 1   
    20    12    28 1   
    21    13    14 2   
    22    13    15 2   
    23    13    16 1   
    24    16    17 ar  
    25    16    21 ar  
    26    17    18 ar  
    27    17    29 1   
    28    18    19 ar  
    29    18    30 1   
    30    19    20 ar  
    31    19    31 1   
    32    20    21 ar  
    33    20    32 1   
    34    21    33 1   
@<TRIPOS>SUBSTRUCTURE
     1 3R7         1 TEMP              0 ****  ****    0 ROOT
