@<TRIPOS>MOLECULE
3R7
   33    34     1     0     0
SMALL
No Charge or Current Charge


@<TRIPOS>ATOM
      1 C10         -1.4070     0.8810    -0.8640 ca         1 3R7      -0.157000
      2 C11         -0.9150    -0.4290    -0.7060 ca         1 3R7       0.293000
      3 O01          0.0360    -3.0800    -0.0140 o          1 3R7      -0.688500
      4 C02         -1.0360    -2.7260     0.4600 c          1 3R7       0.718600
      5 O03         -1.7540    -3.4800     1.1010 o          1 3R7      -0.688500
      6 C04         -1.5050    -1.2950     0.2490 ca         1 3R7      -0.170600
      7 C05         -2.5700    -0.7970     1.0370 ca         1 3R7      -0.070000
      8 C06         -3.0400     0.5160     0.8790 ca         1 3R7      -0.137000
      9 C07         -2.4650     1.3700    -0.0790 ca         1 3R7      -0.060800
     10 C08         -2.9370     2.7720    -0.2880 ce         1 3R7      -0.130200
     11 C09         -3.9860     3.3640     0.3270 c2         1 3R7      -0.348000
     12 N12          0.1360    -0.8650    -1.4990 nu         1 3R7      -0.920100
     13 S13          1.6140    -0.1220    -1.6940 sy         1 3R7       1.147600
     14 O14          2.4610    -1.2490    -2.0850 o          1 3R7      -0.565000
     15 O15          1.3490     1.0100    -2.5870 o          1 3R7      -0.565000
     16 C16          2.0660     0.4410    -0.0500 ca         1 3R7      -0.286500
     17 C17          1.8150     1.7740     0.3370 ca         1 3R7      -0.008500
     18 C18          2.1520     2.2040     1.6330 ca         1 3R7      -0.138500
     19 C19          2.7350     1.3090     2.5450 ca         1 3R7      -0.074000
     20 C20          2.9810    -0.0210     2.1630 ca         1 3R7      -0.138500
     21 C21          2.6470    -0.4580     0.8690 ca         1 3R7      -0.008500
     22 H1          -0.9680     1.5290    -1.6150 ha         1 3R7       0.124000
     23 H3          -3.0410    -1.4290     1.7880 ha         1 3R7       0.130000
     24 H4          -3.8560     0.8550     1.5110 ha         1 3R7       0.096000
     25 H5          -2.3580     3.3430    -1.0180 ha         1 3R7       0.164000
     26 H6          -4.2550     4.3980     0.1060 ha         1 3R7       0.152500
     27 H7          -4.6090     2.8540     1.0600 ha         1 3R7       0.152500
     28 H8           0.4370    -1.8010    -1.2240 hn         1 3R7       0.585000
     29 H9           1.3580     2.4770    -0.3580 ha         1 3R7       0.140000
     30 H10          1.9570     3.2320     1.9290 ha         1 3R7       0.107500
     31 H11          2.9930     1.6440     3.5470 ha         1 3R7       0.099000
     32 H12          3.4290    -0.7150     2.8700 ha         1 3R7       0.107500
     33 H13          2.8370    -1.4930     0.5880 ha         1 3R7       0.140000
@<TRIPOS>BOND
     1     1     2 ar  
     2     1     9 ar  
     3     1    22 1   
     4     2     6 ar  
     5     2    12 1   
     6     3     4 1   
     7     4     5 1   
     8     4     6 1   
     9     6     7 ar  
    10     7     8 ar  
    11     7    23 1   
    12     8     9 ar  
    13     8    24 1   
    14     9    10 1   
    15    10    11 2   
    16    10    25 1   
    17    11    26 1   
    18    11    27 1   
    19    12    13 1   
    20    12    28 1   
    21    13    14 2   
    22    13    15 2   
    23    13    16 1   
    24    16    17 ar  
    25    16    21 ar  
    26    17    18 ar  
    27    17    29 1   
    28    18    19 ar  
    29    18    30 1   
    30    19    20 ar  
    31    19    31 1   
    32    20    21 ar  
    33    20    32 1   
    34    21    33 1   
@<TRIPOS>SUBSTRUCTURE
     1 3R7         1 TEMP              0 ****  ****    0 ROOT
