@<TRIPOS>MOLECULE
3R9
   23    24     1     0     0
SMALL
No Charge or Current Charge


@<TRIPOS>ATOM
      1 OXT         -3.1830    -1.2070    -2.0420 o          1 3R9      -0.711000
      2 N           -0.3060    -0.2530     0.1730 n3         1 3R9      -0.668600
      3 C           -2.2400    -1.3640    -1.2770 c          1 3R9       0.731000
      4 O           -1.7630    -2.4750    -1.0730 o          1 3R9      -0.711000
      5 CA          -1.5940    -0.0880    -0.6110 c5         1 3R9       0.018500
      6 CB          -2.5740     0.3970     0.4880 c5         1 3R9       0.124600
      7 SAH         -1.6250     1.6570     1.4870 ss         1 3R9      -0.534000
      8 CAM          0.0000     1.0470     0.8170 c5         1 3R9       0.328500
      9 CAF          0.4720     2.0280    -0.3050 c5         1 3R9       0.063600
     10 SAG          1.2750     0.9900    -1.6310 ss         1 3R9      -0.577000
     11 CAJ          0.8280    -0.5920    -0.7410 c5         1 3R9       0.403500
     12 CAD          2.0890    -1.2000    -0.0480 c3         1 3R9       0.106600
     13 SAC          3.1120    -0.1900     1.1540 sh         1 3R9      -0.468800
     14 H3          -1.5070     0.6720    -1.3980 h1         1 3R9       0.036700
     15 H4          -3.4870     0.8370     0.0640 h1         1 3R9       0.075700
     16 H5          -2.8690    -0.4330     1.1440 h1         1 3R9       0.075700
     17 H6           0.7510     0.9620     1.6140 h2         1 3R9       0.107700
     18 H7          -0.3750     2.5700    -0.7460 h1         1 3R9       0.070700
     19 H8           1.1770     2.7730     0.0870 h1         1 3R9       0.070700
     20 H9           0.5060    -1.3310    -1.4880 h2         1 3R9       0.107700
     21 H10          1.7650    -2.1070     0.4780 h1         1 3R9       0.081200
     22 H11          2.7680    -1.5250    -0.8460 h1         1 3R9       0.081200
     23 H12          4.0250    -1.1560     1.4190 hs         1 3R9       0.189800
@<TRIPOS>BOND
     1     1     3 1   
     2     2     5 1   
     3     2     8 1   
     4     2    11 1   
     5     3     4 1   
     6     3     5 1   
     7     5     6 1   
     8     5    14 1   
     9     6     7 1   
    10     6    15 1   
    11     6    16 1   
    12     7     8 1   
    13     8     9 1   
    14     8    17 1   
    15     9    10 1   
    16     9    18 1   
    17     9    19 1   
    18    10    11 1   
    19    11    12 1   
    20    11    20 1   
    21    12    13 1   
    22    12    21 1   
    23    12    22 1   
    24    13    23 1   
@<TRIPOS>SUBSTRUCTURE
     1 3R9         1 TEMP              0 ****  ****    0 ROOT
