@<TRIPOS>MOLECULE
3R9
   23    24     1     0     0
SMALL
abcg2


@<TRIPOS>ATOM
      1 OXT         -3.0260    -1.6080    -1.5860 o          1 3R9      -0.711000
      2 N           -0.1900    -0.0700     0.0630 n3         1 3R9      -0.668600
      3 C           -1.9250    -1.5630    -1.0040 c          1 3R9       0.731000
      4 O           -1.1670    -2.5120    -0.7460 o          1 3R9      -0.711000
      5 CA          -1.5160    -0.1440    -0.5430 c5         1 3R9       0.018500
      6 CB          -2.4770     0.3240     0.5410 c5         1 3R9       0.124600
      7 SAH         -1.6210     1.6780     1.4110 ss         1 3R9      -0.534000
      8 CAM         -0.0080     1.2250     0.6940 c5         1 3R9       0.328500
      9 CAF          0.4750     2.2300    -0.3550 c5         1 3R9       0.063600
     10 SAG          1.6570     1.2810    -1.3450 ss         1 3R9      -0.577000
     11 CAJ          0.8960    -0.3480    -0.8400 c5         1 3R9       0.403500
     12 CAD          1.9580    -1.2780    -0.2900 c3         1 3R9       0.106600
     13 SAC          2.8890    -0.5540     1.1020 sh         1 3R9      -0.468800
     14 H3          -1.6020     0.5360    -1.4050 h1         1 3R9       0.036700
     15 H4          -3.4130     0.6840     0.1200 h1         1 3R9       0.075700
     16 H5          -2.6930    -0.4730     1.2530 h1         1 3R9       0.075700
     17 H6           0.7300     1.1590     1.4930 h2         1 3R9       0.107700
     18 H7          -0.3450     2.5980    -0.9720 h1         1 3R9       0.070700
     19 H8           0.9740     3.0810     0.1050 h1         1 3R9       0.070700
     20 H9           0.5140    -0.8250    -1.7420 h2         1 3R9       0.107700
     21 H10          1.4620    -2.1880     0.0430 h1         1 3R9       0.081200
     22 H11          2.6530    -1.5390    -1.0880 h1         1 3R9       0.081200
     23 H12          3.0220    -1.6820     1.8080 hs         1 3R9       0.189800
@<TRIPOS>BOND
     1     1     3 1   
     2     2     5 1   
     3     2     8 1   
     4     2    11 1   
     5     3     4 1   
     6     3     5 1   
     7     5     6 1   
     8     5    14 1   
     9     6     7 1   
    10     6    15 1   
    11     6    16 1   
    12     7     8 1   
    13     8     9 1   
    14     8    17 1   
    15     9    10 1   
    16     9    18 1   
    17     9    19 1   
    18    10    11 1   
    19    11    12 1   
    20    11    20 1   
    21    12    13 1   
    22    12    21 1   
    23    12    22 1   
    24    13    23 1   
@<TRIPOS>SUBSTRUCTURE
     1 3R9         1 TEMP              0 ****  ****    0 ROOT
