@<TRIPOS>MOLECULE
3RB
   46    47     1     0     0
SMALL
No Charge or Current Charge


@<TRIPOS>ATOM
      1 C4          -3.6420     2.6550    -0.0800 ca         1 3RB      -0.116000
      2 C5          -2.7870     1.5650     0.1850 ca         1 3RB      -0.053300
      3 C6          -3.1410     0.2790    -0.2860 ca         1 3RB      -0.037800
      4 C7          -2.2740    -0.9000    -0.0270 ce         1 3RB      -0.067400
      5 C8          -1.6930    -1.6210    -1.0290 cf         1 3RB      -0.147000
      6 C10          0.5080    -2.6900    -0.6460 ce         1 3RB      -0.120000
      7 C13          3.3860    -0.1310    -0.0570 cf         1 3RB      -0.154200
      8 C15          5.6420     0.8410     0.8410 c          1 3RB       0.695200
      9 C20          2.8000     1.1760    -0.5920 c3         1 3RB      -0.039900
     10 C21         -1.4040     1.0690     2.3010 c3         1 3RB      -0.063400
     11 C2          -2.1300    -1.2750     1.4430 c3         1 3RB      -0.024200
     12 C1          -1.0810    -0.4400     2.2040 c3         1 3RB      -0.074400
     13 C18         -1.4800     1.8030     0.9430 c3         1 3RB      -0.033100
     14 C3          -4.8320     2.4710    -0.8030 ca         1 3RB      -0.117000
     15 C16         -5.1770     1.1950    -1.2750 ca         1 3RB      -0.123000
     16 C17         -4.3320     0.1040    -1.0180 ca         1 3RB      -0.108000
     17 C9          -0.8320    -2.7880    -0.8690 cf         1 3RB      -0.145200
     18 C19         -1.5080    -4.1350    -1.0490 c3         1 3RB      -0.035900
     19 C11          1.2560    -1.4330    -0.5090 ce         1 3RB      -0.274000
     20 C12          2.5880    -1.3510    -0.2350 cf         1 3RB      -0.100000
     21 C14          4.6290    -0.2240     0.5240 ce         1 3RB      -0.194200
     22 O1           6.6930     0.4680     1.3380 o          1 3RB      -0.721000
     23 O2           5.3960     2.0180     0.6310 o          1 3RB      -0.721000
     24 H1          -3.3840     3.6510     0.2720 ha         1 3RB       0.107000
     25 H2          -1.8740    -1.2990    -2.0550 ha         1 3RB       0.169000
     26 H3           1.0860    -3.6130    -0.5610 ha         1 3RB       0.158000
     27 H4           2.3330     1.7590     0.2110 hc         1 3RB       0.035367
     28 H5           3.5620     1.8020    -1.0680 hc         1 3RB       0.035367
     29 H6           2.0450     1.0130    -1.3690 hc         1 3RB       0.035367
     30 H7          -2.3440     1.2130     2.8480 hc         1 3RB       0.036700
     31 H8          -0.6200     1.5430     2.9050 hc         1 3RB       0.036700
     32 H9          -3.0970    -1.1630     1.9490 hc         1 3RB       0.041200
     33 H10         -1.8710    -2.3350     1.5490 hc         1 3RB       0.041200
     34 H11         -0.0990    -0.5720     1.7370 hc         1 3RB       0.050700
     35 H12         -0.9910    -0.8400     3.2220 hc         1 3RB       0.050700
     36 H13         -0.6250     1.5090     0.3220 hc         1 3RB       0.053200
     37 H14         -1.3510     2.8750     1.1320 hc         1 3RB       0.053200
     38 H15         -5.4850     3.3190    -1.0020 ha         1 3RB       0.103000
     39 H16         -6.0960     1.0520    -1.8370 ha         1 3RB       0.103000
     40 H17         -4.6040    -0.8840    -1.3820 ha         1 3RB       0.109000
     41 H18         -1.7790    -4.5700    -0.0800 hc         1 3RB       0.028700
     42 H19         -2.4260    -4.0510    -1.6430 hc         1 3RB       0.028700
     43 H20         -0.8510    -4.8480    -1.5620 hc         1 3RB       0.028700
     44 H21          0.6750    -0.5170    -0.6120 ha         1 3RB       0.178000
     45 H22          3.1230    -2.2940    -0.1030 ha         1 3RB       0.152000
     46 H23          4.9580    -1.2140     0.8320 ha         1 3RB       0.142000
@<TRIPOS>BOND
     1     1     2 ar  
     2     1    14 ar  
     3     1    24 1   
     4     2     3 ar  
     5     2    13 1   
     6     3     4 1   
     7     3    16 ar  
     8     4     5 2   
     9     4    11 1   
    10     5    17 1   
    11     5    25 1   
    12     6    17 2   
    13     6    19 1   
    14     6    26 1   
    15     7     9 1   
    16     7    20 1   
    17     7    21 2   
    18     8    21 1   
    19     8    22 1   
    20     8    23 1   
    21     9    27 1   
    22     9    28 1   
    23     9    29 1   
    24    10    12 1   
    25    10    13 1   
    26    10    30 1   
    27    10    31 1   
    28    11    12 1   
    29    11    32 1   
    30    11    33 1   
    31    12    34 1   
    32    12    35 1   
    33    13    36 1   
    34    13    37 1   
    35    14    15 ar  
    36    14    38 1   
    37    15    16 ar  
    38    15    39 1   
    39    16    40 1   
    40    17    18 1   
    41    18    41 1   
    42    18    42 1   
    43    18    43 1   
    44    19    20 2   
    45    19    44 1   
    46    20    45 1   
    47    21    46 1   
@<TRIPOS>SUBSTRUCTURE
     1 3RB         1 TEMP              0 ****  ****    0 ROOT
