@<TRIPOS>MOLECULE
3RB
   46    47     1     0     0
SMALL
abcg2


@<TRIPOS>ATOM
      1 C4          -3.7410     2.5850    -0.1490 ca         1 3RB      -0.116000
      2 C5          -2.8210     1.5770     0.1220 ca         1 3RB      -0.053300
      3 C6          -3.1160     0.2680    -0.2830 ca         1 3RB      -0.037800
      4 C7          -2.1790    -0.8490    -0.0040 ce         1 3RB      -0.067400
      5 C8          -1.7120    -1.5810    -1.0210 cf         1 3RB      -0.147000
      6 C10          0.4830    -2.6710    -0.6420 ce         1 3RB      -0.120000
      7 C13          3.3280    -0.2070     0.0730 cf         1 3RB      -0.154200
      8 C15          5.7080     0.6470     0.6470 c          1 3RB       0.695200
      9 C20          2.6470     1.1170    -0.1110 c3         1 3RB      -0.039900
     10 C21         -1.3510     1.2660     2.1890 c3         1 3RB      -0.063400
     11 C2          -1.8900    -1.1470     1.4450 c3         1 3RB      -0.024200
     12 C1          -0.9190    -0.1940     2.1440 c3         1 3RB      -0.074400
     13 C18         -1.5280     1.9150     0.8150 c3         1 3RB      -0.033100
     14 C3          -4.9370     2.3210    -0.8050 ca         1 3RB      -0.117000
     15 C16         -5.2250     1.0260    -1.2080 ca         1 3RB      -0.123000
     16 C17         -4.3160     0.0110    -0.9440 ca         1 3RB      -0.108000
     17 C9          -0.8300    -2.7600    -0.9150 cf         1 3RB      -0.145200
     18 C19         -1.4920    -4.0770    -1.1880 c3         1 3RB      -0.035900
     19 C11          1.2200    -1.4410    -0.4550 ce         1 3RB      -0.274000
     20 C12          2.5230    -1.4080    -0.1230 cf         1 3RB      -0.100000
     21 C14          4.6260    -0.3740     0.3980 ce         1 3RB      -0.194200
     22 O1           6.8650     0.1730     0.6790 o          1 3RB      -0.721000
     23 O2           5.4060     1.8490     0.8070 o          1 3RB      -0.721000
     24 H1          -3.5120     3.6000     0.1530 ha         1 3RB       0.107000
     25 H2          -2.0410    -1.3330    -2.0290 ha         1 3RB       0.169000
     26 H3           1.0580    -3.5920    -0.5810 ha         1 3RB       0.158000
     27 H4           1.8720     1.2580     0.6470 hc         1 3RB       0.035367
     28 H5           3.3500     1.9370    -0.0320 hc         1 3RB       0.035367
     29 H6           2.1480     1.1650    -1.0810 hc         1 3RB       0.035367
     30 H7          -2.2760     1.3670     2.7640 hc         1 3RB       0.036700
     31 H8          -0.5890     1.8270     2.7370 hc         1 3RB       0.036700
     32 H9          -2.8410    -1.1360     1.9880 hc         1 3RB       0.041200
     33 H10         -1.4940    -2.1600     1.5320 hc         1 3RB       0.041200
     34 H11          0.0600    -0.2640     1.6640 hc         1 3RB       0.050700
     35 H12         -0.7780    -0.5510     3.1680 hc         1 3RB       0.050700
     36 H13         -0.6830     1.6320     0.1750 hc         1 3RB       0.053200
     37 H14         -1.4690     2.9990     0.9240 hc         1 3RB       0.053200
     38 H15         -5.6350     3.1250    -1.0020 ha         1 3RB       0.103000
     39 H16         -6.1520     0.8020    -1.7210 ha         1 3RB       0.103000
     40 H17         -4.5450    -1.0050    -1.2440 ha         1 3RB       0.109000
     41 H18         -2.2840    -4.2740    -0.4600 hc         1 3RB       0.028700
     42 H19         -1.9700    -4.0740    -2.1710 hc         1 3RB       0.028700
     43 H20         -0.7830    -4.9040    -1.1560 hc         1 3RB       0.028700
     44 H21          0.6740    -0.5160    -0.6090 ha         1 3RB       0.178000
     45 H22          3.0380    -2.3550     0.0240 ha         1 3RB       0.152000
     46 H23          4.9700    -1.4030     0.4750 ha         1 3RB       0.142000
@<TRIPOS>BOND
     1     1     2 ar  
     2     1    14 ar  
     3     1    24 1   
     4     2     3 ar  
     5     2    13 1   
     6     3     4 1   
     7     3    16 ar  
     8     4     5 2   
     9     4    11 1   
    10     5    17 1   
    11     5    25 1   
    12     6    17 2   
    13     6    19 1   
    14     6    26 1   
    15     7     9 1   
    16     7    20 1   
    17     7    21 2   
    18     8    21 1   
    19     8    22 1   
    20     8    23 1   
    21     9    27 1   
    22     9    28 1   
    23     9    29 1   
    24    10    12 1   
    25    10    13 1   
    26    10    30 1   
    27    10    31 1   
    28    11    12 1   
    29    11    32 1   
    30    11    33 1   
    31    12    34 1   
    32    12    35 1   
    33    13    36 1   
    34    13    37 1   
    35    14    15 ar  
    36    14    38 1   
    37    15    16 ar  
    38    15    39 1   
    39    16    40 1   
    40    17    18 1   
    41    18    41 1   
    42    18    42 1   
    43    18    43 1   
    44    19    20 2   
    45    19    44 1   
    46    20    45 1   
    47    21    46 1   
@<TRIPOS>SUBSTRUCTURE
     1 3RB         1 TEMP              0 ****  ****    0 ROOT
