@<TRIPOS>MOLECULE
3RC
   34    37     1     0     0
SMALL
No Charge or Current Charge


@<TRIPOS>ATOM
      1 C1           4.7500    -1.8500     0.8610 ca         1 3RC      -0.202000
      2 C2           5.5890    -1.3020    -0.1340 ca         1 3RC       0.358900
      3 N3           5.1870    -0.3290    -0.9930 nb         1 3RC      -0.689000
      4 C4           3.4300    -1.3810     0.9860 ca         1 3RC      -0.008000
      5 C5           3.0480    -0.3790     0.0860 ca         1 3RC      -0.113800
      6 C6           3.9210     0.1110    -0.8610 ca         1 3RC       0.363500
      7 N7           3.2490     1.0780    -1.5850 na         1 3RC      -0.321400
      8 C8           1.9210     1.2480    -1.1330 cc         1 3RC      -0.146100
      9 C9           1.8040     0.3370    -0.0920 cd         1 3RC      -0.165000
     10 C10          0.5670     0.2060     0.6420 cd         1 3RC       0.304800
     11 N11          0.3110    -0.6510     1.6900 nd         1 3RC      -0.361000
     12 N12         -0.9220    -0.4720     2.0850 nc         1 3RC      -0.205800
     13 N13         -1.4530     0.4990     1.2820 na         1 3RC       0.129800
     14 C14         -0.5400     0.9540     0.3630 cc         1 3RC      -0.215000
     15 C15         -2.8430     0.9550     1.4570 c3         1 3RC       0.127900
     16 C16         -3.7960     0.4960     0.3520 ca         1 3RC      -0.127300
     17 C17         -4.7310     1.4020    -0.1900 ca         1 3RC      -0.086000
     18 C18         -5.6130     0.9910    -1.2040 ca         1 3RC      -0.111500
     19 C19         -5.5710    -0.3300    -1.6820 ca         1 3RC      -0.094000
     20 C20         -4.6470    -1.2390    -1.1430 ca         1 3RC      -0.111500
     21 C21         -3.7640    -0.8300    -0.1290 ca         1 3RC      -0.086000
     22 H1           5.1270    -2.6270     1.5200 ha         1 3RC       0.122000
     23 H2           6.6140    -1.6520    -0.2470 h4         1 3RC       0.016100
     24 H3           2.7520    -1.7770     1.7390 ha         1 3RC       0.142000
     25 H4           3.6790     1.5910    -2.3450 hn         1 3RC       0.361000
     26 H5           1.2240     1.9590    -1.5680 h4         1 3RC       0.212000
     27 H6          -0.7500     1.7210    -0.3680 h4         1 3RC       0.164000
     28 H7          -3.2140     0.5900     2.4220 h1         1 3RC       0.076200
     29 H8          -2.8320     2.0510     1.5050 h1         1 3RC       0.076200
     30 H9          -4.7740     2.4270     0.1720 ha         1 3RC       0.118500
     31 H10         -6.3300     1.6960    -1.6190 ha         1 3RC       0.117500
     32 H11         -6.2550    -0.6470    -2.4660 ha         1 3RC       0.116000
     33 H12         -4.6150    -2.2630    -1.5090 ha         1 3RC       0.117500
     34 H13         -3.0570    -1.5480     0.2820 ha         1 3RC       0.118500
@<TRIPOS>BOND
     1     1     2 ar  
     2     1     4 ar  
     3     1    22 1   
     4     2     3 ar  
     5     2    23 1   
     6     3     6 ar  
     7     4     5 ar  
     8     4    24 1   
     9     5     6 ar  
    10     5     9 1   
    11     6     7 1   
    12     7     8 1   
    13     7    25 1   
    14     8     9 2   
    15     8    26 1   
    16     9    10 1   
    17    10    11 1   
    18    10    14 2   
    19    11    12 2   
    20    12    13 1   
    21    13    14 1   
    22    13    15 1   
    23    14    27 1   
    24    15    16 1   
    25    15    28 1   
    26    15    29 1   
    27    16    17 ar  
    28    16    21 ar  
    29    17    18 ar  
    30    17    30 1   
    31    18    19 ar  
    32    18    31 1   
    33    19    20 ar  
    34    19    32 1   
    35    20    21 ar  
    36    20    33 1   
    37    21    34 1   
@<TRIPOS>SUBSTRUCTURE
     1 3RC         1 TEMP              0 ****  ****    0 ROOT
