@<TRIPOS>MOLECULE
3RC
   34    37     1     0     0
SMALL
bcc


@<TRIPOS>ATOM
      1 C1           4.5470    -1.9470     0.6090 ca         1 3RC      -0.285300
      2 C2           5.4460    -1.3120    -0.2560 ca         1 3RC       0.424200
      3 N3           5.1560    -0.2290    -0.9610 nb         1 3RC      -0.689000
      4 C4           3.2670    -1.4470     0.7670 ca         1 3RC      -0.026000
      5 C5           2.9260    -0.3080     0.0390 ca         1 3RC      -0.179100
      6 C6           3.9280     0.2350    -0.7970 ca         1 3RC       0.428800
      7 N7           3.4050     1.3310    -1.4120 na         1 3RC      -0.271100
      8 C8           2.1170     1.5030    -1.0040 cc         1 3RC      -0.096100
      9 C9           1.7680     0.5250    -0.1090 cd         1 3RC      -0.165000
     10 C10          0.4880     0.3700     0.5470 cd         1 3RC       0.370100
     11 N11          0.2170    -0.6570     1.3870 nd         1 3RC      -0.361000
     12 N12         -0.9890    -0.5430     1.8280 nc         1 3RC      -0.205800
     13 N13         -1.5140     0.5430     1.2980 na         1 3RC       0.108400
     14 C14         -0.6410     1.1560     0.4830 cc         1 3RC      -0.247600
     15 C15         -2.9030     0.8900     1.5420 c3         1 3RC       0.098600
     16 C16         -3.7940     0.4070     0.4290 ca         1 3RC      -0.127300
     17 C17         -4.3210     1.3040    -0.4920 ca         1 3RC      -0.104000
     18 C18         -5.1230     0.8540    -1.5330 ca         1 3RC      -0.129500
     19 C19         -5.4020    -0.4990    -1.6590 ca         1 3RC      -0.112000
     20 C20         -4.8780    -1.4020    -0.7400 ca         1 3RC      -0.129500
     21 C21         -4.0780    -0.9500     0.2990 ca         1 3RC      -0.104000
     22 H1           4.8660    -2.8290     1.1470 ha         1 3RC       0.140000
     23 H2           6.4470    -1.7100    -0.3760 h4         1 3RC       0.016100
     24 H3           2.5580    -1.9220     1.4300 ha         1 3RC       0.160000
     25 H4           3.8890     1.9170    -2.0730 hn         1 3RC       0.310700
     26 H5           1.5290     2.3230    -1.3870 h4         1 3RC       0.162000
     27 H6          -0.8750     2.0650    -0.0450 h4         1 3RC       0.182000
     28 H7          -3.1760     0.4390     2.4950 h1         1 3RC       0.076200
     29 H8          -2.9680     1.9710     1.6550 h1         1 3RC       0.076200
     30 H9          -4.1030     2.3620    -0.3980 ha         1 3RC       0.136500
     31 H10         -5.5290     1.5610    -2.2450 ha         1 3RC       0.135500
     32 H11         -6.0260    -0.8520    -2.4700 ha         1 3RC       0.134000
     33 H12         -5.0970    -2.4580    -0.8320 ha         1 3RC       0.135500
     34 H13         -3.6710    -1.6580     1.0120 ha         1 3RC       0.136500
@<TRIPOS>BOND
     1     1     2 ar  
     2     1     4 ar  
     3     1    22 1   
     4     2     3 ar  
     5     2    23 1   
     6     3     6 ar  
     7     4     5 ar  
     8     4    24 1   
     9     5     6 ar  
    10     5     9 1   
    11     6     7 1   
    12     7     8 1   
    13     7    25 1   
    14     8     9 2   
    15     8    26 1   
    16     9    10 1   
    17    10    11 1   
    18    10    14 2   
    19    11    12 2   
    20    12    13 1   
    21    13    14 1   
    22    13    15 1   
    23    14    27 1   
    24    15    16 1   
    25    15    28 1   
    26    15    29 1   
    27    16    17 ar  
    28    16    21 ar  
    29    17    18 ar  
    30    17    30 1   
    31    18    19 ar  
    32    18    31 1   
    33    19    20 ar  
    34    19    32 1   
    35    20    21 ar  
    36    20    33 1   
    37    21    34 1   
@<TRIPOS>SUBSTRUCTURE
     1 3RC         1 TEMP              0 ****  ****    0 ROOT
