@<TRIPOS>MOLECULE
3RE
   48    51     1     0     0
SMALL
No Charge or Current Charge


@<TRIPOS>ATOM
      1 N1          -2.1800     3.6820     0.1060 nb         1 3RE      -0.278000
      2 C2          -0.8480     3.6400     0.0590 ca         1 3RE       0.439900
      3 N3          -0.0660     2.5610     0.0060 nb         1 3RE      -0.322000
      4 C4          -0.6800     1.3590    -0.0050 ca         1 3RE       0.318900
      5 C5          -2.0790     1.2800     0.0400 ca         1 3RE      -0.302800
      6 C6          -2.8070     2.4930     0.0960 ca         1 3RE       0.227300
      7 N7           0.1150     0.1540    -0.0630 n          1 3RE      -0.365300
      8 C8          -0.4930    -1.1380    -0.0740 c          1 3RE       0.578200
      9 C9          -1.9940    -1.1990    -0.0250 cc         1 3RE      -0.247000
     10 C10         -2.7270    -0.0260     0.0290 cd         1 3RE      -0.045200
     11 N11         -0.2100     4.8300     0.0710 nv         1 3RE      -1.066900
     12 C12         -4.3270     2.5440     0.1500 c3         1 3RE      -0.160400
     13 O13          0.2030    -2.1420    -0.1200 o          1 3RE      -0.519000
     14 C14          1.6230     0.2700    -0.1130 c6         1 3RE       0.101700
     15 C15          2.2500    -0.2420    -1.4400 c6         1 3RE      -0.082400
     16 C16          3.7750     0.0330    -1.4690 c6         1 3RE      -0.087900
     17 C17          4.4920    -0.5720    -0.2330 c6         1 3RE       0.167300
     18 C18          3.8660    -0.0300     1.0860 c6         1 3RE      -0.087900
     19 C19          2.3390    -0.2960     1.1450 c6         1 3RE      -0.082400
     20 O20          5.9030    -0.2740    -0.3190 os         1 3RE      -0.459000
     21 C21         -2.6940    -2.4820    -0.0340 cc         1 3RE       0.311800
     22 C22         -4.1060    -2.6100     0.0110 cc         1 3RE      -0.224000
     23 C23         -4.4170    -3.9340    -0.0120 cd         1 3RE      -0.178000
     24 N24         -3.1810    -4.5740    -0.0700 na         1 3RE      -0.000200
     25 N25         -2.1200    -3.6730    -0.0830 nd         1 3RE      -0.480800
     26 C26          6.7770    -0.9010     0.6390 c3         1 3RE       0.149900
     27 H10         -3.8080    -0.0480     0.0640 ha         1 3RE       0.189000
     28 HN11        -0.7400     5.6510     0.3560 hn         1 3RE       0.509500
     29 HN1A         0.7850     4.8390     0.2810 hn         1 3RE       0.509500
     30 H12         -4.7660     2.0710    -0.7360 hc         1 3RE       0.060367
     31 H12A        -4.7050     2.0250     1.0380 hc         1 3RE       0.060367
     32 H12B        -4.7000     3.5740     0.1890 hc         1 3RE       0.060367
     33 H14          1.9020     1.3300    -0.1010 h1         1 3RE       0.086700
     34 H15          2.0800    -1.3180    -1.5690 hc         1 3RE       0.058950
     35 H15A         1.7690     0.2550    -2.2930 hc         1 3RE       0.058950
     36 H16          4.2060    -0.3870    -2.3880 hc         1 3RE       0.049450
     37 H16A         3.9550     1.1160    -1.5060 hc         1 3RE       0.049450
     38 H17          4.3690    -1.6650    -0.2620 h1         1 3RE       0.037700
     39 H18          4.3370    -0.5010     1.9580 hc         1 3RE       0.049450
     40 H18A         4.0570     1.0490     1.1700 hc         1 3RE       0.049450
     41 H19          1.9190     0.1650     2.0490 hc         1 3RE       0.058950
     42 H19A         2.1720    -1.3760     1.2410 hc         1 3RE       0.058950
     43 H22         -4.8390    -1.8150     0.0550 ha         1 3RE       0.142000
     44 H23         -5.3690    -4.4550     0.0070 h4         1 3RE       0.153000
     45 H26          6.5830    -0.5320     1.6540 h1         1 3RE       0.026700
     46 H26A         6.6470    -1.9910     0.6300 h1         1 3RE       0.026700
     47 H26B         7.8240    -0.6800     0.3970 h1         1 3RE       0.026700
     48 HN24        -3.0230    -5.5820    -0.1000 hn         1 3RE       0.372000
@<TRIPOS>BOND
     1     1     2 ar  
     2     1     6 ar  
     3     2     3 ar  
     4     2    11 1   
     5     3     4 ar  
     6     4     5 ar  
     7     4     7 1   
     8     5     6 ar  
     9     5    10 1   
    10     6    12 1   
    11     7     8 1   
    12     7    14 1   
    13     8     9 1   
    14     8    13 2   
    15     9    10 2   
    16     9    21 1   
    17    10    27 1   
    18    11    28 1   
    19    11    29 1   
    20    12    30 1   
    21    12    31 1   
    22    12    32 1   
    23    14    15 1   
    24    14    19 1   
    25    14    33 1   
    26    15    16 1   
    27    15    34 1   
    28    15    35 1   
    29    16    17 1   
    30    16    36 1   
    31    16    37 1   
    32    17    18 1   
    33    17    20 1   
    34    17    38 1   
    35    18    19 1   
    36    18    39 1   
    37    18    40 1   
    38    19    41 1   
    39    19    42 1   
    40    20    26 1   
    41    21    22 1   
    42    21    25 2   
    43    22    23 2   
    44    22    43 1   
    45    23    24 1   
    46    23    44 1   
    47    24    25 1   
    48    24    48 1   
    49    26    45 1   
    50    26    46 1   
    51    26    47 1   
@<TRIPOS>SUBSTRUCTURE
     1 3RE         1 TEMP              0 ****  ****    0 ROOT
