@<TRIPOS>MOLECULE
3RE
   48    51     1     0     0
SMALL
abcg2


@<TRIPOS>ATOM
      1 N1          -2.0760     3.6610     0.0590 nb         1 3RE      -0.278000
      2 C2          -0.7310     3.6030     0.0200 ca         1 3RE       0.439900
      3 N3           0.0020     2.4940    -0.0260 nb         1 3RE      -0.322000
      4 C4          -0.6470     1.3410    -0.0390 ca         1 3RE       0.318900
      5 C5          -2.0500     1.2830    -0.0070 ca         1 3RE      -0.302800
      6 C6          -2.7250     2.5190     0.0450 ca         1 3RE       0.227300
      7 N7           0.0830     0.1760    -0.0830 n          1 3RE      -0.365300
      8 C8          -0.5180    -1.0830    -0.0990 c          1 3RE       0.578200
      9 C9          -1.9770    -1.1280    -0.0970 cc         1 3RE      -0.247000
     10 C10         -2.6900     0.0210    -0.0430 cd         1 3RE      -0.045200
     11 N11         -0.0830     4.7710     0.0240 nv         1 3RE      -1.066900
     12 C12         -4.2180     2.5740     0.0860 c3         1 3RE      -0.160400
     13 O13          0.1670    -2.0920    -0.1050 o          1 3RE      -0.519000
     14 C14          1.5590     0.2670    -0.0950 c6         1 3RE       0.101700
     15 C15          2.1930    -0.2800    -1.3700 c6         1 3RE      -0.082400
     16 C16          3.6870     0.0380    -1.3700 c6         1 3RE      -0.087900
     17 C17          4.3670    -0.5190    -0.1280 c6         1 3RE       0.167300
     18 C18          3.7080     0.0210     1.1400 c6         1 3RE      -0.087900
     19 C19          2.2150    -0.2990     1.1610 c6         1 3RE      -0.082400
     20 O20          5.7390    -0.1940    -0.2070 os         1 3RE      -0.459000
     21 C21         -2.6600    -2.4230    -0.1040 cc         1 3RE       0.311800
     22 C22         -3.8160    -2.7610     0.6340 cc         1 3RE      -0.224000
     23 C23         -4.1000    -4.0510     0.2600 cd         1 3RE      -0.178000
     24 N24         -3.1570    -4.3980    -0.6300 na         1 3RE      -0.000200
     25 N25         -2.2770    -3.4370    -0.8670 nd         1 3RE      -0.480800
     26 C26          6.5650    -0.9390     0.6520 c3         1 3RE       0.149900
     27 H10         -3.7710    -0.0230    -0.0440 ha         1 3RE       0.189000
     28 HN11        -0.5930     5.6340     0.0860 hn         1 3RE       0.509500
     29 HN1A         0.9210     4.7990     0.0220 hn         1 3RE       0.509500
     30 H12         -4.6510     2.1480    -0.8210 hc         1 3RE       0.060367
     31 H12A        -4.6120     2.0050     0.9290 hc         1 3RE       0.060367
     32 H12B        -4.5540     3.6040     0.1760 hc         1 3RE       0.060367
     33 H14          1.7570     1.3370    -0.0880 h1         1 3RE       0.086700
     34 H15          2.0510    -1.3570    -1.4510 hc         1 3RE       0.058950
     35 H15A         1.7190     0.1750    -2.2430 hc         1 3RE       0.058950
     36 H16          4.1500    -0.3840    -2.2640 hc         1 3RE       0.049450
     37 H16A         3.8380     1.1220    -1.4130 hc         1 3RE       0.049450
     38 H17          4.2490    -1.6160    -0.1350 h1         1 3RE       0.037700
     39 H18          4.1760    -0.4070     2.0300 hc         1 3RE       0.049450
     40 H18A         3.8610     1.1040     1.1900 hc         1 3RE       0.049450
     41 H19          1.7560     0.1420     2.0490 hc         1 3RE       0.058950
     42 H19A         2.0740    -1.3780     1.2280 hc         1 3RE       0.058950
     43 H22         -4.3440    -2.1530     1.3490 ha         1 3RE       0.142000
     44 H23         -4.8790    -4.7320     0.5640 h4         1 3RE       0.153000
     45 H26          6.4020    -0.7110     1.7110 h1         1 3RE       0.026700
     46 H26A         6.4280    -2.0180     0.5160 h1         1 3RE       0.026700
     47 H26B         7.6000    -0.6940     0.4140 h1         1 3RE       0.026700
     48 HN24        -3.0670    -5.2830    -1.1040 hn         1 3RE       0.372000
@<TRIPOS>BOND
     1     1     2 ar  
     2     1     6 ar  
     3     2     3 ar  
     4     2    11 1   
     5     3     4 ar  
     6     4     5 ar  
     7     4     7 1   
     8     5     6 ar  
     9     5    10 1   
    10     6    12 1   
    11     7     8 1   
    12     7    14 1   
    13     8     9 1   
    14     8    13 2   
    15     9    10 2   
    16     9    21 1   
    17    10    27 1   
    18    11    28 1   
    19    11    29 1   
    20    12    30 1   
    21    12    31 1   
    22    12    32 1   
    23    14    15 1   
    24    14    19 1   
    25    14    33 1   
    26    15    16 1   
    27    15    34 1   
    28    15    35 1   
    29    16    17 1   
    30    16    36 1   
    31    16    37 1   
    32    17    18 1   
    33    17    20 1   
    34    17    38 1   
    35    18    19 1   
    36    18    39 1   
    37    18    40 1   
    38    19    41 1   
    39    19    42 1   
    40    20    26 1   
    41    21    22 1   
    42    21    25 2   
    43    22    23 2   
    44    22    43 1   
    45    23    24 1   
    46    23    44 1   
    47    24    25 1   
    48    24    48 1   
    49    26    45 1   
    50    26    46 1   
    51    26    47 1   
@<TRIPOS>SUBSTRUCTURE
     1 3RE         1 TEMP              0 ****  ****    0 ROOT
