@<TRIPOS>MOLECULE
3RF
   46    50     1     0     0
SMALL
abcg2


@<TRIPOS>ATOM
      1 C13          0.6020     4.0220     0.1220 ca         1 3RF      -0.057000
      2 C15         -1.6100     4.9570     0.1600 ca         1 3RF      -0.071000
      3 C17          0.8180     1.5020     0.0590 ca         1 3RF       0.448900
      4 C22          4.1760    -1.3890     0.0040 cc         1 3RF      -0.095300
      5 C24          5.9650    -3.1710     0.5950 cx         1 3RF      -0.123900
      6 C26          2.8950    -0.8780     0.0860 cd         1 3RF      -0.209000
      7 C02         -5.4920    -2.6440     0.0520 ca         1 3RF       0.250000
      8 C03         -5.3290    -1.2580     0.0430 ca         1 3RF      -0.146000
      9 C04         -4.0750    -0.6650     0.0460 ca         1 3RF      -0.113500
     10 C05         -4.3310    -3.4240     0.0600 ca         1 3RF      -0.146000
     11 C06         -3.0790    -2.8380     0.0630 ca         1 3RF      -0.113500
     12 C07         -2.9210    -1.4490     0.0560 ca         1 3RF       0.279000
     13 C09         -1.1230     0.3020     0.0670 ca         1 3RF       0.432900
     14 N10         -1.9300     1.3330     0.0900 nb         1 3RF      -0.277000
     15 C11         -1.3450     2.5550     0.1060 ca         1 3RF       0.096000
     16 C12          0.0550     2.7280     0.0950 ca         1 3RF      -0.210000
     17 C14         -0.2170     5.1250     0.1540 ca         1 3RF      -0.143000
     18 C16         -2.1650     3.7020     0.1370 ca         1 3RF      -0.116000
     19 N18          2.1640     1.5630     0.0330 nu         1 3RF      -0.883800
     20 C19          3.0740     0.5160    -0.0050 cd         1 3RF       0.502900
     21 N20          4.3470     0.8380    -0.1330 nc         1 3RF      -0.581800
     22 N21          4.9920    -0.3310    -0.1240 na         1 3RF      -0.000200
     23 C23          4.6200    -2.7880     0.0380 cx         1 3RF      -0.070400
     24 C25          5.7130    -3.2850    -0.8710 cx         1 3RF      -0.123900
     25 N27          0.2300     0.3360     0.0510 nb         1 3RF      -0.327000
     26 H131         1.6730     4.1790     0.1220 ha         1 3RF       0.105000
     27 H151        -2.2540     5.8270     0.1850 ha         1 3RF       0.115000
     28 H241         6.6160    -2.3780     0.9440 hc         1 3RF       0.075450
     29 H242         6.0190    -4.0770     1.1830 hc         1 3RF       0.075450
     30 H261         1.9820    -1.4330     0.1960 ha         1 3RF       0.166000
     31 H011        -7.4910    -2.6570    -0.2720 hn         1 3RF       0.437500
     32 H012        -6.7970    -4.1630    -0.2570 hn         1 3RF       0.437500
     33 H031        -6.2040    -0.6180     0.0340 ha         1 3RF       0.111000
     34 H041        -3.9990     0.4100     0.0380 ha         1 3RF       0.129000
     35 H051        -4.4070    -4.5050     0.0650 ha         1 3RF       0.111000
     36 H061        -2.2040    -3.4780     0.0680 ha         1 3RF       0.129000
     37 H081        -0.8900    -1.6690     0.0390 hn         1 3RF       0.506000
     38 H141         0.2110     6.1180     0.1750 ha         1 3RF       0.116000
     39 H161        -3.2390     3.5670     0.1440 ha         1 3RF       0.131000
     40 H181         2.5950     2.4730     0.0030 hn         1 3RF       0.516000
     41 H211         5.9960    -0.3290    -0.2080 hn         1 3RF       0.372000
     42 H231         3.8090    -3.4810     0.2250 hc         1 3RF       0.098700
     43 H251         6.1890    -2.5710    -1.5320 hc         1 3RF       0.075450
     44 H252         5.5890    -4.2710    -1.2980 hc         1 3RF       0.075450
     45 N08         -1.6110    -0.9650     0.0540 nu         1 3RF      -0.924900
     46 N01         -6.7500    -3.2250     0.1080 nv         1 3RF      -1.060000
@<TRIPOS>BOND
     1     1    16 ar  
     2     1    17 ar  
     3     1    26 1   
     4     2    17 ar  
     5     2    18 ar  
     6     2    27 1   
     7     3    16 ar  
     8     3    19 1   
     9     3    25 ar  
    10     4     6 2   
    11     4    22 1   
    12     4    23 1   
    13     5    23 1   
    14     5    24 1   
    15     5    28 1   
    16     5    29 1   
    17     6    20 1   
    18     6    30 1   
    19     7     8 ar  
    20     7    10 ar  
    21     7    46 1   
    22     8     9 ar  
    23     8    33 1   
    24     9    12 ar  
    25     9    34 1   
    26    10    11 ar  
    27    10    35 1   
    28    11    12 ar  
    29    11    36 1   
    30    12    45 1   
    31    13    14 ar  
    32    13    25 ar  
    33    13    45 1   
    34    14    15 ar  
    35    15    16 ar  
    36    15    18 ar  
    37    17    38 1   
    38    18    39 1   
    39    19    20 1   
    40    19    40 1   
    41    20    21 2   
    42    21    22 1   
    43    22    41 1   
    44    23    24 1   
    45    23    42 1   
    46    24    43 1   
    47    24    44 1   
    48    31    46 1   
    49    32    46 1   
    50    37    45 1   
@<TRIPOS>SUBSTRUCTURE
     1 3RF         1 TEMP              0 ****  ****    0 ROOT
