@<TRIPOS>MOLECULE
3RF
   46    50     1     0     0
SMALL
No Charge or Current Charge


@<TRIPOS>ATOM
      1 C13          0.6310     3.9480     0.1450 ca         1 3RF      -0.057000
      2 C15         -1.5740     4.9780     0.1540 ca         1 3RF      -0.071000
      3 C17          0.7890     1.4640     0.1830 ca         1 3RF       0.448900
      4 C22          4.2880    -1.3620    -0.1470 cc         1 3RF      -0.095300
      5 C24          5.9010    -3.3120     0.3880 cx         1 3RF      -0.123900
      6 C26          3.0300    -0.8270    -0.1450 cd         1 3RF      -0.209000
      7 C02         -5.6090    -2.6230     0.0060 ca         1 3RF       0.250000
      8 C03         -5.3260    -1.3950    -0.6110 ca         1 3RF      -0.146000
      9 C04         -4.0330    -0.8430    -0.5330 ca         1 3RF      -0.113500
     10 C05         -4.5930    -3.3010     0.6970 ca         1 3RF      -0.146000
     11 C06         -3.3000    -2.7500     0.7750 ca         1 3RF      -0.113500
     12 C07         -3.0110    -1.5110     0.1720 ca         1 3RF       0.279000
     13 C09         -1.1430     0.2570     0.2070 ca         1 3RF       0.432900
     14 N10         -1.9530     1.3280     0.2080 nb         1 3RF      -0.277000
     15 C11         -1.3740     2.5430     0.1850 ca         1 3RF       0.096000
     16 C12          0.0370     2.6630     0.1710 ca         1 3RF      -0.210000
     17 C14         -0.1760     5.0970     0.1370 ca         1 3RF      -0.143000
     18 C16         -2.1660     3.7050     0.1780 ca         1 3RF      -0.116000
     19 N18          2.1810     1.4800     0.1950 nu         1 3RF      -0.883800
     20 C19          3.1550     0.5470     0.1140 cd         1 3RF       0.502900
     21 N20          4.3860     0.9460     0.2680 nc         1 3RF      -0.581800
     22 N21          5.0920    -0.2430     0.1110 na         1 3RF      -0.000200
     23 C23          4.7150    -2.7580    -0.3690 cx         1 3RF      -0.070400
     24 C25          6.0100    -3.0430    -1.0950 cx         1 3RF      -0.123900
     25 N27          0.1920     0.2640     0.2090 nb         1 3RF      -0.327000
     26 H131         1.7110     4.0750     0.1280 ha         1 3RF       0.105000
     27 H151        -2.1970     5.8690     0.1470 ha         1 3RF       0.115000
     28 H241         6.4360    -2.6510     1.0660 hc         1 3RF       0.075450
     29 H242         5.8520    -4.3480     0.7130 hc         1 3RF       0.075450
     30 H261         2.1120    -1.3720    -0.3190 ha         1 3RF       0.166000
     31 H011        -7.5750    -2.7250    -0.6600 hn         1 3RF       0.437500
     32 H012        -7.0480    -4.0980     0.2820 hn         1 3RF       0.437500
     33 H031        -6.1030    -0.8670    -1.1580 ha         1 3RF       0.111000
     34 H041        -3.8320     0.0950    -1.0400 ha         1 3RF       0.129000
     35 H051        -4.8010    -4.2550     1.1750 ha         1 3RF       0.111000
     36 H061        -2.5230    -3.2860     1.3140 ha         1 3RF       0.129000
     37 H081        -1.0100    -1.7140     0.4970 hn         1 3RF       0.506000
     38 H141         0.2840     6.0830     0.1160 ha         1 3RF       0.116000
     39 H161        -3.2500     3.6190     0.1900 ha         1 3RF       0.131000
     40 H181         2.5830     2.4000     0.3090 hn         1 3RF       0.516000
     41 H211         6.1090    -0.2580     0.1800 hn         1 3RF       0.372000
     42 H231         3.8860    -3.4380    -0.5540 hc         1 3RF       0.098700
     43 H251         6.6190    -2.2010    -1.4170 hc         1 3RF       0.075450
     44 H252         6.0350    -3.9000    -1.7650 hc         1 3RF       0.075450
     45 N08         -1.7060    -1.0080     0.2650 nu         1 3RF      -0.924900
     46 N01         -6.8660    -3.1600    -0.0710 nv         1 3RF      -1.060000
@<TRIPOS>BOND
     1     1    16 ar  
     2     1    17 ar  
     3     1    26 1   
     4     2    17 ar  
     5     2    18 ar  
     6     2    27 1   
     7     3    16 ar  
     8     3    19 1   
     9     3    25 ar  
    10     4     6 2   
    11     4    22 1   
    12     4    23 1   
    13     5    23 1   
    14     5    24 1   
    15     5    28 1   
    16     5    29 1   
    17     6    20 1   
    18     6    30 1   
    19     7     8 ar  
    20     7    10 ar  
    21     7    46 1   
    22     8     9 ar  
    23     8    33 1   
    24     9    12 ar  
    25     9    34 1   
    26    10    11 ar  
    27    10    35 1   
    28    11    12 ar  
    29    11    36 1   
    30    12    45 1   
    31    13    14 ar  
    32    13    25 ar  
    33    13    45 1   
    34    14    15 ar  
    35    15    16 ar  
    36    15    18 ar  
    37    17    38 1   
    38    18    39 1   
    39    19    20 1   
    40    19    40 1   
    41    20    21 2   
    42    21    22 1   
    43    22    41 1   
    44    23    24 1   
    45    23    42 1   
    46    24    43 1   
    47    24    44 1   
    48    31    46 1   
    49    32    46 1   
    50    37    45 1   
@<TRIPOS>SUBSTRUCTURE
     1 3RF         1 TEMP              0 ****  ****    0 ROOT
