@<TRIPOS>MOLECULE
3RG
   21    21     1     0     0
SMALL
abcg2


@<TRIPOS>ATOM
      1 C           -3.2460    -0.0430    -0.0150 c          1 3RG       0.709000
      2 N           -0.7790     0.0800    -0.0050 nu         1 3RG      -0.931200
      3 O           -3.0840    -1.2760    -0.0270 o          1 3RG      -0.737500
      4 CA          -1.9860     0.8470    -0.0020 c3         1 3RG       0.081800
      5 OAB          2.6510    -2.3560     0.0190 o          1 3RG      -0.736000
      6 OAD          0.4350    -2.2840    -0.0040 o          1 3RG      -0.736000
      7 CAE          1.9180     2.5630     0.0260 ca         1 3RG      -0.079000
      8 CAF          3.0510     1.7590     0.0290 ca         1 3RG      -0.266000
      9 CAG          0.6540     2.0040     0.0150 ca         1 3RG      -0.276000
     10 CAH          2.8780     0.3830     0.0230 ca         1 3RG      -0.046000
     11 CAL          1.5670    -1.7420     0.0090 c          1 3RG       0.715600
     12 CAM          0.4660     0.6030     0.0070 ca         1 3RG       0.391000
     13 CAN          1.6260    -0.2260     0.0120 ca         1 3RG      -0.242600
     14 OXT         -4.3270     0.5770    -0.0110 o          1 3RG      -0.737500
     15 HN          -0.8370    -0.9340    -0.0090 hn         1 3RG       0.571000
     16 HA          -2.0420     1.5180    -0.8710 h1         1 3RG       0.004700
     17 HAA         -2.0470     1.5030     0.8770 h1         1 3RG       0.004700
     18 HAE          2.0150     3.6420     0.0320 ha         1 3RG       0.054000
     19 HAF          4.0430     2.1920     0.0410 ha         1 3RG       0.063000
     20 HAG         -0.2050     2.6610     0.0120 ha         1 3RG       0.088000
     21 HAH          3.7470    -0.2620     0.0280 ha         1 3RG       0.106000
@<TRIPOS>BOND
     1     1     3 1   
     2     1     4 1   
     3     1    14 1   
     4     2     4 1   
     5     2    12 1   
     6     2    15 1   
     7     4    16 1   
     8     4    17 1   
     9     5    11 1   
    10     6    11 1   
    11     7     8 ar  
    12     7     9 ar  
    13     7    18 1   
    14     8    10 ar  
    15     8    19 1   
    16     9    12 ar  
    17     9    20 1   
    18    10    13 ar  
    19    10    21 1   
    20    11    13 1   
    21    12    13 ar  
@<TRIPOS>SUBSTRUCTURE
     1 3RG         1 TEMP              0 ****  ****    0 ROOT
