@<TRIPOS>MOLECULE
3RG
   21    21     1     0     0
SMALL
No Charge or Current Charge


@<TRIPOS>ATOM
      1 C           -3.3380    -0.0960     0.0050 c          1 3RG       0.709000
      2 N           -0.7600     0.1330    -0.2390 nu         1 3RG      -0.931200
      3 O           -3.2370    -1.2750     0.3260 o          1 3RG      -0.737500
      4 CA          -2.0520     0.8220     0.0730 c3         1 3RG       0.081800
      5 OAB          2.4880    -2.3770    -0.3340 o          1 3RG      -0.736000
      6 OAD          0.4410    -2.2260     0.2830 o          1 3RG      -0.736000
      7 CAE          1.9890     2.6040    -0.0130 ca         1 3RG      -0.079000
      8 CAF          3.0980     1.7620     0.1100 ca         1 3RG      -0.266000
      9 CAG          0.7080     2.0470    -0.1300 ca         1 3RG      -0.276000
     10 CAH          2.9320     0.3680     0.1110 ca         1 3RG      -0.046000
     11 CAL          1.5100    -1.7150    -0.0210 c          1 3RG       0.715600
     12 CAM          0.5250     0.6510    -0.1210 ca         1 3RG       0.391000
     13 CAN          1.6440    -0.2080    -0.0060 ca         1 3RG      -0.242600
     14 OXT         -4.3840     0.3940    -0.4050 o          1 3RG      -0.737500
     15 HN          -0.7530    -0.8910    -0.0820 hn         1 3RG       0.571000
     16 HA          -2.1930     1.6600    -0.6230 h1         1 3RG       0.004700
     17 HAA         -2.0000     1.2370     1.0880 h1         1 3RG       0.004700
     18 HAE          2.1190     3.6840    -0.0180 ha         1 3RG       0.054000
     19 HAF          4.0940     2.1880     0.2020 ha         1 3RG       0.063000
     20 HAG         -0.1430     2.7140    -0.2280 ha         1 3RG       0.088000
     21 HAH          3.8120    -0.2650     0.2060 ha         1 3RG       0.106000
@<TRIPOS>BOND
     1     1     3 1   
     2     1     4 1   
     3     1    14 1   
     4     2     4 1   
     5     2    12 1   
     6     2    15 1   
     7     4    16 1   
     8     4    17 1   
     9     5    11 1   
    10     6    11 1   
    11     7     8 ar  
    12     7     9 ar  
    13     7    18 1   
    14     8    10 ar  
    15     8    19 1   
    16     9    12 ar  
    17     9    20 1   
    18    10    13 ar  
    19    10    21 1   
    20    11    13 1   
    21    12    13 ar  
@<TRIPOS>SUBSTRUCTURE
     1 3RG         1 TEMP              0 ****  ****    0 ROOT
