@<TRIPOS>MOLECULE
3RH
   36    39     1     0     0
SMALL
No Charge or Current Charge


@<TRIPOS>ATOM
      1 C1          -1.5500     0.3750     0.2060 ca         1 3RH       0.222500
      2 C2          -1.1980    -0.6530     1.1160 ca         1 3RH      -0.232300
      3 N3          -2.7610     0.3330    -0.3980 nb         1 3RH      -0.248000
      4 C4          -3.5600    -0.7050    -0.1170 ca         1 3RH       0.369900
      5 N5          -4.7630    -0.7220    -0.7430 nv         1 3RH      -1.053900
      6 N6          -3.3120    -1.7240     0.7140 nb         1 3RH      -0.239000
      7 C7          -2.1220    -1.6910     1.3380 ca         1 3RH       0.153900
      8 C8           0.0990    -0.6060     1.9170 c6         1 3RH      -0.000100
      9 C9           1.2290     0.1620     1.2010 c6         1 3RH       0.030900
     10 C10          2.0490    -0.7510     0.2730 ca         1 3RH      -0.074300
     11 C11          0.6980     1.3830     0.4420 ca         1 3RH      -0.052300
     12 C12         -0.6330     1.4320    -0.0520 ca         1 3RH      -0.158500
     13 C13          3.4110    -0.9960     0.5490 ca         1 3RH      -0.103500
     14 C14          4.1700    -1.8260    -0.2930 ca         1 3RH      -0.110000
     15 C15          3.5760    -2.4190    -1.4200 ca         1 3RH      -0.110000
     16 C16          2.2220    -2.1790    -1.7040 ca         1 3RH      -0.110000
     17 C17          1.4620    -1.3480    -0.8630 ca         1 3RH      -0.103500
     18 C18          1.5900     2.4400     0.1690 ca         1 3RH      -0.113000
     19 C19          1.1790     3.5460    -0.5880 ca         1 3RH      -0.093000
     20 C20         -0.1270     3.5970    -1.0920 ca         1 3RH      -0.123000
     21 C21         -1.0240     2.5480    -0.8340 ca         1 3RH      -0.063000
     22 HN5         -5.0810     0.1240    -1.2120 hn         1 3RH       0.488500
     23 HN5A        -5.4820    -1.3610    -0.4100 hn         1 3RH       0.488500
     24 H7          -1.9140    -2.4990     2.0380 h4         1 3RH       0.020100
     25 H8          -0.1110    -0.1100     2.8750 hc         1 3RH       0.053700
     26 H8A          0.4380    -1.6200     2.1720 hc         1 3RH       0.053700
     27 H9           1.9000     0.5290     1.9900 hc         1 3RH       0.061700
     28 H13          3.8850    -0.5440     1.4170 ha         1 3RH       0.114000
     29 H14          5.2190    -2.0110    -0.0720 ha         1 3RH       0.112000
     30 H15          4.1650    -3.0620    -2.0710 ha         1 3RH       0.112000
     31 H16          1.7610    -2.6350    -2.5770 ha         1 3RH       0.112000
     32 H17          0.4170    -1.1690    -1.1000 ha         1 3RH       0.114000
     33 H18          2.6140     2.3950     0.5350 ha         1 3RH       0.116000
     34 H19          1.8760     4.3560    -0.7930 ha         1 3RH       0.114000
     35 H20         -0.4460     4.4500    -1.6860 ha         1 3RH       0.116000
     36 H21         -2.0310     2.6240    -1.2400 ha         1 3RH       0.133000
@<TRIPOS>BOND
     1     1     2 ar  
     2     1     3 ar  
     3     1    12 1   
     4     2     7 ar  
     5     2     8 1   
     6     3     4 ar  
     7     4     5 1   
     8     4     6 ar  
     9     5    22 1   
    10     5    23 1   
    11     6     7 ar  
    12     7    24 1   
    13     8     9 1   
    14     8    25 1   
    15     8    26 1   
    16     9    10 1   
    17     9    11 1   
    18     9    27 1   
    19    10    13 ar  
    20    10    17 ar  
    21    11    12 ar  
    22    11    18 ar  
    23    12    21 ar  
    24    13    14 ar  
    25    13    28 1   
    26    14    15 ar  
    27    14    29 1   
    28    15    16 ar  
    29    15    30 1   
    30    16    17 ar  
    31    16    31 1   
    32    17    32 1   
    33    18    19 ar  
    34    18    33 1   
    35    19    20 ar  
    36    19    34 1   
    37    20    21 ar  
    38    20    35 1   
    39    21    36 1   
@<TRIPOS>SUBSTRUCTURE
     1 3RH         1 TEMP              0 ****  ****    0 ROOT
