@<TRIPOS>MOLECULE
3RH
   36    39     1     0     0
SMALL
bcc


@<TRIPOS>ATOM
      1 C1          -1.3890     0.3210     0.2460 ca         1 3RH       0.550800
      2 C2          -0.9640    -0.5610     1.2400 ca         1 3RH      -0.362900
      3 N3          -2.5040     0.1270    -0.4440 nb         1 3RH      -0.774000
      4 C4          -3.2190    -0.9610    -0.1560 ca         1 3RH       0.895900
      5 N5          -4.3410    -1.1760    -0.8810 nv         1 3RH      -0.943500
      6 N6          -2.8980    -1.8770     0.7630 nb         1 3RH      -0.765000
      7 C7          -1.7820    -1.6590     1.4400 ca         1 3RH       0.482200
      8 C8           0.2760    -0.2710     2.0230 c6         1 3RH      -0.000100
      9 C9           1.3450     0.3660     1.1280 c6         1 3RH       0.030900
     10 C10          1.9650    -0.6630     0.2020 ca         1 3RH      -0.074300
     11 C11          0.7550     1.5450     0.3930 ca         1 3RH      -0.052300
     12 C12         -0.5740     1.5100    -0.0470 ca         1 3RH      -0.158500
     13 C13          2.9100    -1.5440     0.7290 ca         1 3RH      -0.121500
     14 C14          3.4850    -2.5330    -0.0550 ca         1 3RH      -0.128000
     15 C15          3.1220    -2.6610    -1.3910 ca         1 3RH      -0.128000
     16 C16          2.1870    -1.7880    -1.9270 ca         1 3RH      -0.128000
     17 C17          1.6150    -0.7960    -1.1390 ca         1 3RH      -0.121500
     18 C18          1.5330     2.6590     0.1030 ca         1 3RH      -0.131000
     19 C19          1.0060     3.7300    -0.6030 ca         1 3RH      -0.111000
     20 C20         -0.3140     3.6930    -1.0380 ca         1 3RH      -0.141000
     21 C21         -1.0970     2.5850    -0.7640 ca         1 3RH      -0.081000
     22 HN5         -4.7130    -0.4080    -1.4120 hn         1 3RH       0.433300
     23 HN5A        -5.0110    -1.8370    -0.5270 hn         1 3RH       0.433300
     24 H7          -1.5210    -2.4030     2.1880 h4         1 3RH       0.020100
     25 H8           0.0450     0.4240     2.8370 hc         1 3RH       0.053700
     26 H8A          0.6600    -1.1800     2.4900 hc         1 3RH       0.053700
     27 H9           2.1430     0.7410     1.7750 hc         1 3RH       0.061700
     28 H13          3.2040    -1.4500     1.7680 ha         1 3RH       0.132000
     29 H14          4.2190    -3.2010     0.3760 ha         1 3RH       0.130000
     30 H15          3.5700    -3.4290    -2.0070 ha         1 3RH       0.130000
     31 H16          1.9000    -1.8740    -2.9680 ha         1 3RH       0.130000
     32 H17          0.8990    -0.1210    -1.5890 ha         1 3RH       0.132000
     33 H18          2.5640     2.6880     0.4370 ha         1 3RH       0.134000
     34 H19          1.6250     4.5930    -0.8140 ha         1 3RH       0.132000
     35 H20         -0.7290     4.5280    -1.5870 ha         1 3RH       0.134000
     36 H21         -2.1250     2.5480    -1.1010 ha         1 3RH       0.151000
@<TRIPOS>BOND
     1     1     2 ar  
     2     1     3 ar  
     3     1    12 1   
     4     2     7 ar  
     5     2     8 1   
     6     3     4 ar  
     7     4     5 1   
     8     4     6 ar  
     9     5    22 1   
    10     5    23 1   
    11     6     7 ar  
    12     7    24 1   
    13     8     9 1   
    14     8    25 1   
    15     8    26 1   
    16     9    10 1   
    17     9    11 1   
    18     9    27 1   
    19    10    13 ar  
    20    10    17 ar  
    21    11    12 ar  
    22    11    18 ar  
    23    12    21 ar  
    24    13    14 ar  
    25    13    28 1   
    26    14    15 ar  
    27    14    29 1   
    28    15    16 ar  
    29    15    30 1   
    30    16    17 ar  
    31    16    31 1   
    32    17    32 1   
    33    18    19 ar  
    34    18    33 1   
    35    19    20 ar  
    36    19    34 1   
    37    20    21 ar  
    38    20    35 1   
    39    21    36 1   
@<TRIPOS>SUBSTRUCTURE
     1 3RH         1 TEMP              0 ****  ****    0 ROOT
