@<TRIPOS>MOLECULE
3RJ
   50    55     1     0     0
SMALL
No Charge or Current Charge


@<TRIPOS>ATOM
      1 C13         -5.0950    -2.1600     0.1770 cy         1 3RJ      -0.031400
      2 C15         -6.5760    -3.6930     0.2970 cy         1 3RJ      -0.094400
      3 C17         -3.2940    -0.3180     0.0410 cc         1 3RJ      -0.208000
      4 C21          2.7160    -1.4530    -0.0890 ca         1 3RJ       0.334000
      5 C22          3.8850    -0.7420    -0.4420 ca         1 3RJ      -0.150000
      6 C28          4.0690    -3.4670     0.3240 ca         1 3RJ      -0.019000
      7 C01          1.2830     2.6500     0.3960 ca         1 3RJ       0.094000
      8 C02          2.1160     3.7370     0.7180 ca         1 3RJ      -0.116000
      9 C03          1.5900     5.0340     0.8340 ca         1 3RJ      -0.071000
     10 C04          0.2190     5.2530     0.6300 ca         1 3RJ      -0.141000
     11 C05         -0.6270     4.1800     0.3090 ca         1 3RJ      -0.057000
     12 C06         -0.0990     2.8720     0.1870 ca         1 3RJ      -0.207000
     13 C07         -0.8950     1.7450    -0.1280 ca         1 3RJ       0.448900
     14 C09         -3.3110     1.0070    -0.4070 cc         1 3RJ       0.498900
     15 N10         -4.4670     1.4310    -0.8440 nd         1 3RJ      -0.581800
     16 N11         -5.2710     0.2930    -0.6890 na         1 3RJ       0.004800
     17 C12         -4.5580    -0.7850    -0.1440 cd         1 3RJ      -0.113300
     18 C14         -6.3910    -2.3300     1.0420 cy         1 3RJ      -0.084400
     19 C16         -5.8660    -2.9900    -0.9070 cy         1 3RJ      -0.084400
     20 N18         -0.3620     0.5190    -0.2380 nb         1 3RJ      -0.325000
     21 C19          0.9530     0.4160    -0.0310 ca         1 3RJ       0.431900
     22 N20          1.4440    -0.8760    -0.1250 nu         1 3RJ      -0.926900
     23 C23          5.1070    -1.4230    -0.3850 ca         1 3RJ      -0.053200
     24 N24          6.3660    -0.9930    -0.6650 na         1 3RJ      -0.318600
     25 C25          7.2240    -2.0700    -0.4520 cc         1 3RJ       0.404700
     26 N26          6.5370    -3.1620    -0.0520 nd         1 3RJ      -0.567100
     27 C27          5.2130    -2.7310    -0.0180 ca         1 3RJ       0.034400
     28 C29          2.8160    -2.8150     0.2800 ca         1 3RJ      -0.188000
     29 N30          1.7970     1.4100     0.2890 nb         1 3RJ      -0.276000
     30 H131        -4.2390    -2.7070     0.5930 hc         1 3RJ       0.077700
     31 H152        -6.0180    -4.5310     0.7310 hc         1 3RJ       0.054700
     32 H151        -7.6100    -4.0110     0.1260 hc         1 3RJ       0.054700
     33 H171        -2.4490    -0.8470     0.4610 ha         1 3RJ       0.165000
     34 H221         3.8480     0.2920    -0.7650 ha         1 3RJ       0.158000
     35 H281         4.1480    -4.5130     0.6130 ha         1 3RJ       0.128000
     36 H021         3.1790     3.5740     0.8790 ha         1 3RJ       0.129000
     37 H031         2.2440     5.8670     1.0830 ha         1 3RJ       0.115000
     38 H041        -0.1890     6.2570     0.7230 ha         1 3RJ       0.117000
     39 H051        -1.6860     4.3800     0.1650 ha         1 3RJ       0.106000
     40 H081        -2.5610     2.8060    -0.5840 hn         1 3RJ       0.517000
     41 H111        -6.2570     0.2930    -0.9480 hn         1 3RJ       0.373000
     42 H142        -6.2370    -2.3920     2.1250 hc         1 3RJ       0.052950
     43 H141        -7.1770    -1.5910     0.8440 hc         1 3RJ       0.052950
     44 H161        -6.5330    -2.4010    -1.5480 hc         1 3RJ       0.052950
     45 H162        -5.2500    -3.6340    -1.5430 hc         1 3RJ       0.052950
     46 H201         0.6910    -1.5600    -0.1590 hn         1 3RJ       0.509000
     47 H241         6.6450    -0.0690    -0.9690 hn         1 3RJ       0.357000
     48 H251         8.2960    -2.0010    -0.6020 h5         1 3RJ       0.059800
     49 H291         1.9210    -3.3730     0.5420 ha         1 3RJ       0.110000
     50 N08         -2.2580     1.8630    -0.3790 nu         1 3RJ      -0.880800
@<TRIPOS>BOND
     1     1    17 1   
     2     1    18 1   
     3     1    19 1   
     4     1    30 1   
     5     2    18 1   
     6     2    19 1   
     7     2    31 1   
     8     2    32 1   
     9     3    14 1   
    10     3    17 2   
    11     3    33 1   
    12     4     5 ar  
    13     4    22 1   
    14     4    28 ar  
    15     5    23 ar  
    16     5    34 1   
    17     6    27 ar  
    18     6    28 ar  
    19     6    35 1   
    20     7     8 ar  
    21     7    12 ar  
    22     7    29 ar  
    23     8     9 ar  
    24     8    36 1   
    25     9    10 ar  
    26     9    37 1   
    27    10    11 ar  
    28    10    38 1   
    29    11    12 ar  
    30    11    39 1   
    31    12    13 ar  
    32    13    20 ar  
    33    13    50 1   
    34    14    15 2   
    35    14    50 1   
    36    15    16 1   
    37    16    17 1   
    38    16    41 1   
    39    18    42 1   
    40    18    43 1   
    41    19    44 1   
    42    19    45 1   
    43    20    21 ar  
    44    21    22 1   
    45    21    29 ar  
    46    22    46 1   
    47    23    24 1   
    48    23    27 ar  
    49    24    25 1   
    50    24    47 1   
    51    25    26 2   
    52    25    48 1   
    53    26    27 1   
    54    28    49 1   
    55    40    50 1   
@<TRIPOS>SUBSTRUCTURE
     1 3RJ         1 TEMP              0 ****  ****    0 ROOT
