@<TRIPOS>MOLECULE
3RJ
   50    55     1     0     0
SMALL
bcc


@<TRIPOS>ATOM
      1 C13         -4.9820    -2.3230    -0.0390 cy         1 3RJ      -0.031400
      2 C15         -6.7340    -3.5700     0.0550 cy         1 3RJ      -0.094400
      3 C17         -3.1190    -0.5090    -0.0120 cc         1 3RJ      -0.291300
      4 C21          2.6540    -1.3750    -0.0330 ca         1 3RJ       0.195600
      5 C22          3.8290    -0.6320     0.0000 ca         1 3RJ      -0.168000
      6 C28          3.8970    -3.4810    -0.0820 ca         1 3RJ      -0.037000
      7 C01          1.2920     2.7030     0.0940 ca         1 3RJ       0.487600
      8 C02          2.1720     3.8040     0.1430 ca         1 3RJ      -0.199300
      9 C03          1.6830     5.0850     0.1990 ca         1 3RJ      -0.089000
     10 C04          0.3000     5.3240     0.2090 ca         1 3RJ      -0.159000
     11 C05         -0.5750     4.2670     0.1590 ca         1 3RJ      -0.075000
     12 C06         -0.0960     2.9480     0.0980 ca         1 3RJ      -0.337600
     13 C07         -0.9230     1.7640     0.0390 ca         1 3RJ       0.777200
     14 C09         -3.2260     0.8950    -0.0140 cc         1 3RJ       0.564200
     15 N10         -4.4860     1.2880    -0.0490 nd         1 3RJ      -0.581800
     16 N11         -5.1900     0.1560    -0.0680 na         1 3RJ       0.004400
     17 C12         -4.4280    -0.9490    -0.0460 cd         1 3RJ      -0.062600
     18 C14         -5.9500    -2.7480     1.0940 cy         1 3RJ      -0.084400
     19 C16         -6.0830    -2.7210    -1.0520 cy         1 3RJ      -0.084400
     20 N18         -0.3950     0.5690     0.0020 nb         1 3RJ      -0.851000
     21 C19          0.9530     0.4680     0.0100 ca         1 3RJ       0.957900
     22 N20          1.3760    -0.8260    -0.0300 nu         1 3RJ      -0.733300
     23 C23          5.0190    -1.3530    -0.0090 ca         1 3RJ      -0.053200
     24 N24          6.3250    -0.9490     0.0160 na         1 3RJ      -0.268300
     25 C25          7.0930    -2.0680    -0.0100 cc         1 3RJ       0.404700
     26 N26          6.3990    -3.1690    -0.0480 nd         1 3RJ      -0.567100
     27 C27          5.0860    -2.7530    -0.0490 ca         1 3RJ       0.034400
     28 C29          2.7070    -2.7900    -0.0740 ca         1 3RJ      -0.206000
     29 N30          1.8120     1.4510     0.0480 nb         1 3RJ      -0.802000
     30 H131        -4.1520    -3.0290    -0.0980 hc         1 3RJ       0.077700
     31 H152        -6.3940    -4.6050     0.0200 hc         1 3RJ       0.054700
     32 H151        -7.8220    -3.5630     0.1230 hc         1 3RJ       0.054700
     33 H171        -2.2340    -1.1160     0.0130 ha         1 3RJ       0.183000
     34 H221         3.8130     0.4450     0.0300 ha         1 3RJ       0.176000
     35 H281         3.9030    -4.5630    -0.1130 ha         1 3RJ       0.146000
     36 H021         3.2370     3.6140     0.1390 ha         1 3RJ       0.147000
     37 H031         2.3700     5.9200     0.2380 ha         1 3RJ       0.133000
     38 H041        -0.0750     6.3380     0.2590 ha         1 3RJ       0.135000
     39 H051        -1.6370     4.4780     0.1740 ha         1 3RJ       0.124000
     40 H081        -2.6470     2.8260     0.0310 hn         1 3RJ       0.461800
     41 H111        -6.1960     0.2090    -0.0950 hn         1 3RJ       0.322700
     42 H142        -5.5140    -3.2700     1.9460 hc         1 3RJ       0.052950
     43 H141        -6.5330    -1.9030     1.4640 hc         1 3RJ       0.052950
     44 H161        -6.7100    -1.8720    -1.3320 hc         1 3RJ       0.052950
     45 H162        -5.7570    -3.2220    -1.9630 hc         1 3RJ       0.052950
     46 H201         0.6190    -1.4910    -0.0580 hn         1 3RJ       0.453800
     47 H241         6.6660    -0.0010     0.0450 hn         1 3RJ       0.306700
     48 H251         8.1710    -2.0080     0.0020 h5         1 3RJ       0.059800
     49 H291         1.7760    -3.3450    -0.1000 ha         1 3RJ       0.128000
     50 N08         -2.2630     1.8950     0.0220 nu         1 3RJ      -0.825600
@<TRIPOS>BOND
     1     1    17 1   
     2     1    18 1   
     3     1    19 1   
     4     1    30 1   
     5     2    18 1   
     6     2    19 1   
     7     2    31 1   
     8     2    32 1   
     9     3    14 1   
    10     3    17 2   
    11     3    33 1   
    12     4     5 ar  
    13     4    22 1   
    14     4    28 ar  
    15     5    23 ar  
    16     5    34 1   
    17     6    27 ar  
    18     6    28 ar  
    19     6    35 1   
    20     7     8 ar  
    21     7    12 ar  
    22     7    29 ar  
    23     8     9 ar  
    24     8    36 1   
    25     9    10 ar  
    26     9    37 1   
    27    10    11 ar  
    28    10    38 1   
    29    11    12 ar  
    30    11    39 1   
    31    12    13 ar  
    32    13    20 ar  
    33    13    50 1   
    34    14    15 2   
    35    14    50 1   
    36    15    16 1   
    37    16    17 1   
    38    16    41 1   
    39    18    42 1   
    40    18    43 1   
    41    19    44 1   
    42    19    45 1   
    43    20    21 ar  
    44    21    22 1   
    45    21    29 ar  
    46    22    46 1   
    47    23    24 1   
    48    23    27 ar  
    49    24    25 1   
    50    24    47 1   
    51    25    26 2   
    52    25    48 1   
    53    26    27 1   
    54    28    49 1   
    55    40    50 1   
@<TRIPOS>SUBSTRUCTURE
     1 3RJ         1 TEMP              0 ****  ****    0 ROOT
