@<TRIPOS>MOLECULE
3RK
   24    24     1     0     0
SMALL
No Charge or Current Charge


@<TRIPOS>ATOM
      1 OAA          2.9680     0.0050    -0.0860 oh         1 3RK      -0.731000
      2 OAB         -2.9660     0.0370     0.0980 oh         1 3RK      -0.731000
      3 OAC          1.4570    -2.1040     0.2800 oh         1 3RK      -0.701500
      4 OAD         -1.4780    -2.0870    -0.2550 oh         1 3RK      -0.701500
      5 CAE          1.1270     1.5570    -0.6210 c3         1 3RK       0.135300
      6 CAF         -1.1130     1.5720     0.6410 c3         1 3RK       0.135300
      7 NAG          0.0140     2.3140     0.0140 n7         1 3RK      -0.870400
      8 CAH          1.5690     0.2850     0.1670 c3         1 3RK       0.110800
      9 CAI         -1.5620     0.3030    -0.1480 c3         1 3RK       0.110800
     10 CAJ          0.7390    -0.9700    -0.2370 c3         1 3RK       0.182300
     11 CAK         -0.7470    -0.9600     0.2610 c3         1 3RK       0.182300
     12 HOAA         3.4890     0.7890     0.2130 ho         1 3RK       0.513000
     13 HOAC         2.3890    -1.7640     0.2720 ho         1 3RK       0.519500
     14 HOAD        -2.4050    -1.7330    -0.2520 ho         1 3RK       0.519500
     15 HAE          0.8360     1.2490    -1.6350 h1         1 3RK       0.048950
     16 HAEA         1.9890     2.2270    -0.7420 h1         1 3RK       0.048950
     17 HAF         -0.8410     1.2660     1.6610 h1         1 3RK       0.048950
     18 HAFA        -1.9690     2.2530     0.7430 h1         1 3RK       0.048950
     19 HNAG         0.4050     2.9540     0.7210 hn         1 3RK       0.417000
     20 HAH          1.4310     0.4710     1.2420 h1         1 3RK       0.050700
     21 HAI         -1.4180     0.4890    -1.2220 h1         1 3RK       0.050700
     22 HAJ          0.7240    -1.0200    -1.3350 h1         1 3RK       0.049700
     23 HAK         -0.7330    -1.0080     1.3590 h1         1 3RK       0.049700
     24 HOAB        -3.4750     0.8290    -0.2010 ho         1 3RK       0.513000
@<TRIPOS>BOND
     1     1     8 1   
     2     1    12 1   
     3     2     9 1   
     4     2    24 1   
     5     3    10 1   
     6     3    13 1   
     7     4    11 1   
     8     4    14 1   
     9     5     7 1   
    10     5     8 1   
    11     5    15 1   
    12     5    16 1   
    13     6     7 1   
    14     6     9 1   
    15     6    17 1   
    16     6    18 1   
    17     7    19 1   
    18     8    10 1   
    19     8    20 1   
    20     9    11 1   
    21     9    21 1   
    22    10    11 1   
    23    10    22 1   
    24    11    23 1   
@<TRIPOS>SUBSTRUCTURE
     1 3RK         1 TEMP              0 ****  ****    0 ROOT
