@<TRIPOS>MOLECULE
3RK
   24    24     1     0     0
SMALL
bcc


@<TRIPOS>ATOM
      1 OAA          2.8760    -0.0040    -0.1940 oh         1 3RK      -0.608800
      2 OAB         -2.8600     0.0390     0.1880 oh         1 3RK      -0.608800
      3 OAC          1.2970    -2.0700     0.3460 oh         1 3RK      -0.579300
      4 OAD         -1.3190    -2.0360    -0.3240 oh         1 3RK      -0.579300
      5 CAE          1.0900     1.5820    -0.5750 c3         1 3RK       0.135300
      6 CAF         -1.0860     1.6060     0.6260 c3         1 3RK       0.135300
      7 NAG         -0.0020     2.3410    -0.0020 n7         1 3RK      -0.815200
      8 CAH          1.5480     0.3270     0.1780 c3         1 3RK       0.087600
      9 CAI         -1.5220     0.3640    -0.1490 c3         1 3RK       0.087600
     10 CAJ          0.7300    -0.9070    -0.2090 c3         1 3RK       0.159100
     11 CAK         -0.7260    -0.8890     0.2370 c3         1 3RK       0.159100
     12 HOAA         3.4770     0.6210     0.2210 ho         1 3RK       0.414000
     13 HOAC         2.2490    -2.0130     0.2020 ho         1 3RK       0.420500
     14 HOAD        -2.2700    -1.9540    -0.1880 ho         1 3RK       0.420500
     15 HAE          0.8520     1.2970    -1.6070 h1         1 3RK       0.048950
     16 HAEA         1.9390     2.2650    -0.6490 h1         1 3RK       0.048950
     17 HAF         -0.8650     1.3020     1.6610 h1         1 3RK       0.048950
     18 HAFA        -1.9450     2.2800     0.6890 h1         1 3RK       0.048950
     19 HNAG         0.3680     3.0000     0.6680 hn         1 3RK       0.361800
     20 HAH          1.4840     0.4950     1.2630 h1         1 3RK       0.050700
     21 HAI         -1.4360     0.5470    -1.2300 h1         1 3RK       0.050700
     22 HAJ          0.7410    -0.9590    -1.3120 h1         1 3RK       0.049700
     23 HAK         -0.7400    -0.9450     1.3400 h1         1 3RK       0.049700
     24 HOAB        -3.4480     0.6670    -0.2420 ho         1 3RK       0.414000
@<TRIPOS>BOND
     1     1     8 1   
     2     1    12 1   
     3     2     9 1   
     4     2    24 1   
     5     3    10 1   
     6     3    13 1   
     7     4    11 1   
     8     4    14 1   
     9     5     7 1   
    10     5     8 1   
    11     5    15 1   
    12     5    16 1   
    13     6     7 1   
    14     6     9 1   
    15     6    17 1   
    16     6    18 1   
    17     7    19 1   
    18     8    10 1   
    19     8    20 1   
    20     9    11 1   
    21     9    21 1   
    22    10    11 1   
    23    10    22 1   
    24    11    23 1   
@<TRIPOS>SUBSTRUCTURE
     1 3RK         1 TEMP              0 ****  ****    0 ROOT
