@<TRIPOS>MOLECULE
3RL
   35    36     1     0     0
SMALL
No Charge or Current Charge


@<TRIPOS>ATOM
      1 CAA          5.5310    -2.2820    -0.0700 c3         1 3RL       0.150400
      2 OAM          4.0930    -2.3270    -0.0400 os         1 3RL      -0.343600
      3 CAR          3.3180    -1.1850    -0.0150 ca         1 3RL       0.176600
      4 CAJ          1.9250    -1.3450     0.0130 ca         1 3RL      -0.176500
      5 CAL          3.8760     0.1090    -0.0160 ca         1 3RL      -0.284000
      6 CAS          3.0260     1.2340     0.0110 ca         1 3RL       0.176600
      7 OAN          3.5080     2.5270     0.0130 os         1 3RL      -0.343600
      8 CAB          4.9160     2.8250    -0.0130 c3         1 3RL       0.150400
      9 CAK          1.6340     1.0590     0.0390 ca         1 3RL      -0.176500
     10 CAQ          1.0680    -0.2300     0.0390 ca         1 3RL       0.020200
     11 CAE         -0.4090    -0.4460     0.0690 ce         1 3RL      -0.165200
     12 CAD         -1.4200     0.4700     0.0030 cf         1 3RL      -0.132200
     13 CAP         -2.8830     0.2610     0.0320 ca         1 3RL      -0.094800
     14 CAH         -3.7400     1.3790    -0.0570 ca         1 3RL      -0.056500
     15 CAF         -5.1360     1.2140    -0.0330 ca         1 3RL      -0.178500
     16 CAO         -5.6910    -0.0670     0.0810 ca         1 3RL       0.145100
     17 OAC         -7.0440    -0.2170     0.1030 oh         1 3RL      -0.532100
     18 CAG         -4.8510    -1.1880     0.1700 ca         1 3RL      -0.178500
     19 CAI         -3.4540    -1.0260     0.1460 ca         1 3RL      -0.056500
     20 HAC          5.8860    -1.7570    -0.9660 h1         1 3RL       0.040033
     21 HAB          5.9240    -1.7700     0.8190 h1         1 3RL       0.040033
     22 HAA          5.9420    -3.2980    -0.0860 h1         1 3RL       0.040033
     23 HAM          1.5120    -2.3500     0.0140 ha         1 3RL       0.128000
     24 HAO          4.9510     0.2390    -0.0380 ha         1 3RL       0.120000
     25 HAD          5.0740     3.9100    -0.0060 h1         1 3RL       0.040033
     26 HAE          5.4200     2.4020     0.8650 h1         1 3RL       0.040033
     27 HAF          5.3840     2.4180    -0.9190 h1         1 3RL       0.040033
     28 HAN          1.0050     1.9420     0.0640 ha         1 3RL       0.128000
     29 HAH         -0.6820    -1.4970     0.1520 ha         1 3RL       0.174000
     30 HAG         -1.1370     1.5190    -0.0870 ha         1 3RL       0.174000
     31 HAK         -3.3250     2.3810    -0.1460 ha         1 3RL       0.114000
     32 HAI         -5.7860     2.0820    -0.1020 ha         1 3RL       0.121000
     33 HAP         -7.2490    -1.1730     0.1860 ho         1 3RL       0.466000
     34 HAJ         -5.2720    -2.1860     0.2580 ha         1 3RL       0.121000
     35 HAL         -2.8270    -1.9100     0.2170 ha         1 3RL       0.114000
@<TRIPOS>BOND
     1     1     2 1   
     2     1    20 1   
     3     1    21 1   
     4     1    22 1   
     5     2     3 1   
     6     3     4 ar  
     7     3     5 ar  
     8     4    10 ar  
     9     4    23 1   
    10     5     6 ar  
    11     5    24 1   
    12     6     7 1   
    13     6     9 ar  
    14     7     8 1   
    15     8    25 1   
    16     8    26 1   
    17     8    27 1   
    18     9    10 ar  
    19     9    28 1   
    20    10    11 1   
    21    11    12 2   
    22    11    29 1   
    23    12    13 1   
    24    12    30 1   
    25    13    14 ar  
    26    13    19 ar  
    27    14    15 ar  
    28    14    31 1   
    29    15    16 ar  
    30    15    32 1   
    31    16    17 1   
    32    16    18 ar  
    33    17    33 1   
    34    18    19 ar  
    35    18    34 1   
    36    19    35 1   
@<TRIPOS>SUBSTRUCTURE
     1 3RL         1 TEMP              0 ****  ****    0 ROOT
