@<TRIPOS>MOLECULE
3RL
   35    36     1     0     0
SMALL
bcc


@<TRIPOS>ATOM
      1 CAA          5.4250    -2.1830    -0.2030 c3         1 3RL       0.127200
      2 OAM          4.0160    -2.2870    -0.1540 os         1 3RL      -0.320400
      3 CAR          3.2810    -1.1620    -0.0670 ca         1 3RL       0.176600
      4 CAJ          1.9010    -1.3370    -0.0240 ca         1 3RL      -0.194500
      5 CAL          3.8350     0.1150    -0.0220 ca         1 3RL      -0.302000
      6 CAS          2.9810     1.2170     0.0660 ca         1 3RL       0.176600
      7 OAN          3.4220     2.4880     0.1240 os         1 3RL      -0.320400
      8 CAB          4.8140     2.7340     0.1320 c3         1 3RL       0.127200
      9 CAK          1.6030     1.0490     0.1040 ca         1 3RL      -0.194500
     10 CAQ          1.0530    -0.2330     0.0550 ca         1 3RL       0.020200
     11 CAE         -0.3900    -0.4740     0.0920 ce         1 3RL      -0.115200
     12 CAD         -1.3450     0.4560    -0.0490 cf         1 3RL      -0.082200
     13 CAP         -2.7870     0.2370    -0.0010 ca         1 3RL      -0.094800
     14 CAH         -3.6460     1.3060    -0.2720 ca         1 3RL      -0.074500
     15 CAF         -5.0220     1.1670    -0.2410 ca         1 3RL      -0.196500
     16 CAO         -5.5850    -0.0680     0.0710 ca         1 3RL       0.145100
     17 OAC         -6.9270    -0.1650     0.0980 oh         1 3RL      -0.493100
     18 CAG         -4.7470    -1.1500     0.3440 ca         1 3RL      -0.196500
     19 CAI         -3.3740    -0.9940     0.3090 ca         1 3RL      -0.074500
     20 HAC          5.7640    -1.6240    -1.0790 h1         1 3RL       0.040033
     21 HAB          5.8330    -1.7140     0.6960 h1         1 3RL       0.040033
     22 HAA          5.8060    -3.2000    -0.2700 h1         1 3RL       0.040033
     23 HAM          1.4910    -2.3400    -0.0580 ha         1 3RL       0.146000
     24 HAO          4.9070     0.2500    -0.0510 ha         1 3RL       0.138000
     25 HAD          4.9350     3.8130     0.1960 h1         1 3RL       0.040033
     26 HAE          5.3070     2.2750     0.9920 h1         1 3RL       0.040033
     27 HAF          5.2990     2.3820    -0.7830 h1         1 3RL       0.040033
     28 HAN          0.9730     1.9250     0.1870 ha         1 3RL       0.146000
     29 HAH         -0.6730    -1.5120     0.2370 ha         1 3RL       0.124000
     30 HAG         -1.0530     1.4860    -0.2290 ha         1 3RL       0.124000
     31 HAK         -3.2260     2.2750    -0.5160 ha         1 3RL       0.132000
     32 HAI         -5.6620     2.0130    -0.4560 ha         1 3RL       0.139000
     33 HAP         -7.1960    -1.0560     0.3460 ho         1 3RL       0.427000
     34 HAJ         -5.1690    -2.1170     0.5930 ha         1 3RL       0.139000
     35 HAL         -2.7560    -1.8550     0.5350 ha         1 3RL       0.132000
@<TRIPOS>BOND
     1     1     2 1   
     2     1    20 1   
     3     1    21 1   
     4     1    22 1   
     5     2     3 1   
     6     3     4 ar  
     7     3     5 ar  
     8     4    10 ar  
     9     4    23 1   
    10     5     6 ar  
    11     5    24 1   
    12     6     7 1   
    13     6     9 ar  
    14     7     8 1   
    15     8    25 1   
    16     8    26 1   
    17     8    27 1   
    18     9    10 ar  
    19     9    28 1   
    20    10    11 1   
    21    11    12 2   
    22    11    29 1   
    23    12    13 1   
    24    12    30 1   
    25    13    14 ar  
    26    13    19 ar  
    27    14    15 ar  
    28    14    31 1   
    29    15    16 ar  
    30    15    32 1   
    31    16    17 1   
    32    16    18 ar  
    33    17    33 1   
    34    18    19 ar  
    35    18    34 1   
    36    19    35 1   
@<TRIPOS>SUBSTRUCTURE
     1 3RL         1 TEMP              0 ****  ****    0 ROOT
