@<TRIPOS>MOLECULE
3RM
   41    43     1     0     0
SMALL
abcg2


@<TRIPOS>ATOM
      1 C1           2.6800    -0.0290     1.3290 ca         1 3RM      -0.177000
      2 N1          -1.7880    -1.6910     0.0260 n3         1 3RM      -0.707600
      3 O1           1.0380    -1.4500     0.4920 os         1 3RM      -0.327100
      4 BR1          6.4760     1.0810     0.1080 br         1 3RM      -0.102100
      5 C2           3.9260     0.5650     1.2640 ca         1 3RM      -0.045000
      6 N2          -4.2500    -0.3130    -0.2910 nh         1 3RM      -0.743300
      7 C3           4.7710     0.2690     0.2010 ca         1 3RM      -0.059900
      8 N3          -5.3840     1.6410    -1.0630 nc         1 3RM      -0.402000
      9 C4           4.3730    -0.6130    -0.7870 ca         1 3RM      -0.045000
     10 N4          -6.6040     2.2290    -0.7960 nc         1 3RM      -0.398000
     11 C5           3.1200    -1.2100    -0.7210 ca         1 3RM      -0.177000
     12 N5          -6.3950     0.4660     0.4700 na         1 3RM      -0.558000
     13 C6           2.2630    -0.9230     0.3390 ca         1 3RM       0.158100
     14 N6          -8.4410     1.6980     0.6370 nv         1 3RM      -1.012900
     15 C7           0.5450    -2.3410    -0.4950 c3         1 3RM       0.165600
     16 C8          -0.8410    -2.7820    -0.0820 c3         1 3RM       0.168800
     17 C9          -2.1870    -1.1650    -1.2650 c6         1 3RM       0.158800
     18 C10         -3.0970     0.0370    -1.1030 c6         1 3RM       0.201800
     19 C11         -3.8840    -0.8980     0.9910 c6         1 3RM       0.201800
     20 C12         -2.9650    -2.0820     0.7760 c6         1 3RM       0.158800
     21 C13         -5.2780     0.5910    -0.3050 cd         1 3RM       0.621400
     22 C14         -7.1860     1.5170     0.1190 cd         1 3RM       0.594400
     23 H1           2.0170     0.2000     2.1540 ha         1 3RM       0.125000
     24 H2           4.2260     1.2520     2.0440 ha         1 3RM       0.128000
     25 H4           5.0240    -0.8530    -1.6170 ha         1 3RM       0.128000
     26 H5           2.8390    -1.8960    -1.5080 ha         1 3RM       0.125000
     27 HN5         -6.6240    -0.2700     1.1190 hn         1 3RM       0.358000
     28 HN6         -8.8160     2.6110     0.4330 hn         1 3RM       0.455500
     29 HN6A        -8.5250     1.4920     1.6220 hn         1 3RM       0.455500
     30 H7           0.5390    -1.8560    -1.4770 h1         1 3RM       0.037700
     31 H7A          1.1860    -3.2260    -0.5750 h1         1 3RM       0.037700
     32 H8          -0.7730    -3.2770     0.8900 h1         1 3RM       0.044700
     33 H8A         -1.1700    -3.5530    -0.7980 h1         1 3RM       0.044700
     34 H9          -1.3100    -0.8390    -1.8270 h1         1 3RM       0.041700
     35 H9A         -2.6960    -1.9320    -1.8730 h1         1 3RM       0.041700
     36 H10         -3.4370     0.3630    -2.0850 h1         1 3RM       0.053950
     37 H10A        -2.5360     0.8680    -0.6540 h1         1 3RM       0.053950
     38 H11         -3.3920    -0.1580     1.6370 h1         1 3RM       0.053950
     39 H11A        -4.7710    -1.2550     1.5130 h1         1 3RM       0.053950
     40 H12         -3.5270    -2.8870     0.2710 h1         1 3RM       0.041700
     41 H12A        -2.6600    -2.4620     1.7530 h1         1 3RM       0.041700
@<TRIPOS>BOND
     1     1     5 ar  
     2     1    13 ar  
     3     1    23 1   
     4     2    16 1   
     5     2    17 1   
     6     2    20 1   
     7     3    13 1   
     8     3    15 1   
     9     4     7 1   
    10     5     7 ar  
    11     5    24 1   
    12     6    18 1   
    13     6    19 1   
    14     6    21 1   
    15     7     9 ar  
    16     8    10 1   
    17     8    21 2   
    18     9    11 ar  
    19     9    25 1   
    20    10    22 2   
    21    11    13 ar  
    22    11    26 1   
    23    12    21 1   
    24    12    22 1   
    25    12    27 1   
    26    14    22 1   
    27    14    28 1   
    28    14    29 1   
    29    15    16 1   
    30    15    30 1   
    31    15    31 1   
    32    16    32 1   
    33    16    33 1   
    34    17    18 1   
    35    17    34 1   
    36    17    35 1   
    37    18    36 1   
    38    18    37 1   
    39    19    20 1   
    40    19    38 1   
    41    19    39 1   
    42    20    40 1   
    43    20    41 1   
@<TRIPOS>SUBSTRUCTURE
     1 3RM         1 TEMP              0 ****  ****    0 ROOT
