@<TRIPOS>MOLECULE
3RM
   41    43     1     0     0
SMALL
No Charge or Current Charge


@<TRIPOS>ATOM
      1 C1           2.9410    -0.0750     1.2790 ca         1 3RM      -0.177000
      2 N1          -1.7960    -1.6350     0.1950 n3         1 3RM      -0.707600
      3 O1           1.1890    -1.4780     0.4790 os         1 3RM      -0.327100
      4 Br1          6.7770     0.9090    -0.1150 br         1 3RM      -0.102100
      5 C2           4.2260     0.4840     1.1570 ca         1 3RM      -0.045000
      6 N2          -4.3050    -0.0600    -0.1430 nh         1 3RM      -0.743300
      7 C3           5.0290     0.1510     0.0540 ca         1 3RM      -0.059900
      8 N3          -5.6380     1.6550    -1.1960 nc         1 3RM      -0.402000
      9 C4           4.5540    -0.7370    -0.9250 ca         1 3RM      -0.045000
     10 N4          -6.9350     2.1150    -1.0180 nc         1 3RM      -0.398000
     11 C5           3.2680    -1.2960    -0.8030 ca         1 3RM      -0.177000
     12 N5          -6.5730     0.4950     0.4440 na         1 3RM      -0.558000
     13 C6           2.4560    -0.9640     0.3050 ca         1 3RM       0.158100
     14 N6          -8.6730     1.5100     0.4500 nv         1 3RM      -1.012900
     15 C7           0.5920    -2.3880    -0.4670 c3         1 3RM       0.165600
     16 C8          -0.8350    -2.7640     0.0210 c3         1 3RM       0.168800
     17 C9          -2.0780    -0.8810    -1.0670 c6         1 3RM       0.158800
     18 C10         -3.0440     0.3270    -0.8500 c6         1 3RM       0.201800
     19 C11         -4.0730    -0.9010     1.0740 c6         1 3RM       0.201800
     20 C12         -3.0830    -2.0800     0.8090 c6         1 3RM       0.158800
     21 C13         -5.4640     0.6940    -0.3010 cd         1 3RM       0.621400
     22 C14         -7.4360     1.3950    -0.0400 cd         1 3RM       0.594400
     23 H1           2.3180     0.1820     2.1310 ha         1 3RM       0.125000
     24 H2           4.5950     1.1720     1.9150 ha         1 3RM       0.128000
     25 H4           5.1790    -0.9930    -1.7780 ha         1 3RM       0.128000
     26 H5           2.9230    -1.9800    -1.5720 ha         1 3RM       0.125000
     27 HN5         -6.7190    -0.1810     1.1690 hn         1 3RM       0.358000
     28 HN6         -9.1940     2.3400     0.1900 hn         1 3RM       0.455500
     29 HN6A        -8.8650     1.1170     1.3650 hn         1 3RM       0.455500
     30 H7           0.5350    -1.9340    -1.4640 h1         1 3RM       0.037700
     31 H7A          1.1900    -3.3050    -0.5440 h1         1 3RM       0.037700
     32 H8          -0.7200    -3.2930     0.9770 h1         1 3RM       0.044700
     33 H8A         -1.2490    -3.4920    -0.6890 h1         1 3RM       0.044700
     34 H9          -1.1470    -0.4910    -1.5020 h1         1 3RM       0.041700
     35 H9A         -2.5240    -1.5530    -1.8140 h1         1 3RM       0.041700
     36 H10         -3.2630     0.7660    -1.8330 h1         1 3RM       0.053950
     37 H10A        -2.5180     1.0960    -0.2650 h1         1 3RM       0.053950
     38 H11         -3.6660    -0.2740     1.8810 h1         1 3RM       0.053950
     39 H11A        -5.0140    -1.3310     1.4450 h1         1 3RM       0.053950
     40 H12         -3.5800    -2.8080     0.1510 h1         1 3RM       0.041700
     41 H12A        -2.8920    -2.5920     1.7630 h1         1 3RM       0.041700
@<TRIPOS>BOND
     1     1     5 ar  
     2     1    13 ar  
     3     1    23 1   
     4     2    16 1   
     5     2    17 1   
     6     2    20 1   
     7     3    13 1   
     8     3    15 1   
     9     4     7 1   
    10     5     7 ar  
    11     5    24 1   
    12     6    18 1   
    13     6    19 1   
    14     6    21 1   
    15     7     9 ar  
    16     8    10 1   
    17     8    21 2   
    18     9    11 ar  
    19     9    25 1   
    20    10    22 2   
    21    11    13 ar  
    22    11    26 1   
    23    12    21 1   
    24    12    22 1   
    25    12    27 1   
    26    14    22 1   
    27    14    28 1   
    28    14    29 1   
    29    15    16 1   
    30    15    30 1   
    31    15    31 1   
    32    16    32 1   
    33    16    33 1   
    34    17    18 1   
    35    17    34 1   
    36    17    35 1   
    37    18    36 1   
    38    18    37 1   
    39    19    20 1   
    40    19    38 1   
    41    19    39 1   
    42    20    40 1   
    43    20    41 1   
@<TRIPOS>SUBSTRUCTURE
     1 3RM         1 TEMP              0 ****  ****    0 ROOT
