@<TRIPOS>MOLECULE
3RN
   16    16     1     0     0
SMALL
No Charge or Current Charge


@<TRIPOS>ATOM
      1 C1          -0.9430     0.6930     0.1720 c          1 3RN       0.573300
      2 O1          -1.1330     1.8140     0.6260 o          1 3RN      -0.523100
      3 C2           0.3160    -0.0800     0.2060 ce         1 3RN      -0.231400
      4 O2           2.5600    -0.1150    -0.7110 oh         1 3RN      -0.664000
      5 C3           0.1120    -1.4140     0.2610 c2         1 3RN      -0.132200
      6 C4          -1.3930    -1.6620     0.2420 c5         1 3RN      -0.064200
      7 C5          -1.9310    -0.3340    -0.3810 c5         1 3RN      -0.188400
      8 C6           1.6470     0.6330     0.0970 c3         1 3RN       0.223800
      9 HO2          3.3990     0.3980    -0.7340 ho         1 3RN       0.448000
     10 H3           0.8960    -2.1750     0.2610 ha         1 3RN       0.205000
     11 H4          -1.6610    -2.5420    -0.3550 hc         1 3RN       0.063700
     12 H5          -2.9700    -0.0790    -0.1480 hc         1 3RN       0.076700
     13 H6           1.4890     1.6310    -0.3360 h1         1 3RN       0.036200
     14 H6A          2.0550     0.7730     1.1080 h1         1 3RN       0.036200
     15 H7          -1.7740    -1.8210     1.2580 hc         1 3RN       0.063700
     16 H8          -1.7890    -0.3880    -1.4660 hc         1 3RN       0.076700
@<TRIPOS>BOND
     1     1     2 2   
     2     1     3 1   
     3     1     7 1   
     4     3     5 2   
     5     3     8 1   
     6     4     8 1   
     7     4     9 1   
     8     5     6 1   
     9     5    10 1   
    10     6     7 1   
    11     6    11 1   
    12     6    15 1   
    13     7    12 1   
    14     7    16 1   
    15     8    13 1   
    16     8    14 1   
@<TRIPOS>SUBSTRUCTURE
     1 3RN         1 TEMP              0 ****  ****    0 ROOT
