@<TRIPOS>MOLECULE
3RN
   16    16     1     0     0
SMALL
bcc


@<TRIPOS>ATOM
      1 C1          -0.9100     0.6870    -0.0090 c          1 3RN       0.573300
      2 O1          -1.0330     1.8950    -0.0110 o          1 3RN      -0.523100
      3 C2           0.3650    -0.0450     0.0090 ce         1 3RN      -0.231400
      4 O2           2.7160    -0.2750     0.0380 oh         1 3RN      -0.601800
      5 C3           0.1190    -1.3590     0.0190 c2         1 3RN      -0.082200
      6 C4          -1.3400    -1.6900     0.0140 c5         1 3RN      -0.064200
      7 C5          -2.0330    -0.3280    -0.0280 c5         1 3RN      -0.188400
      8 C6           1.6730     0.6650     0.0180 c3         1 3RN       0.200600
      9 HO2          3.5490     0.2040     0.0370 ho         1 3RN       0.409000
     10 H3           0.8750    -2.1330     0.0330 ha         1 3RN       0.155000
     11 H4          -1.5940    -2.3210    -0.8410 hc         1 3RN       0.063700
     12 H5          -2.7010    -0.1640     0.8200 hc         1 3RN       0.076700
     13 H6           1.7260     1.3190    -0.8640 h1         1 3RN       0.036200
     14 H6A          1.7050     1.3330     0.8900 h1         1 3RN       0.036200
     15 H7          -1.6040    -2.2650     0.9050 hc         1 3RN       0.063700
     16 H8          -2.6330    -0.1930    -0.9300 hc         1 3RN       0.076700
@<TRIPOS>BOND
     1     1     2 2   
     2     1     3 1   
     3     1     7 1   
     4     3     5 2   
     5     3     8 1   
     6     4     8 1   
     7     4     9 1   
     8     5     6 1   
     9     5    10 1   
    10     6     7 1   
    11     6    11 1   
    12     6    15 1   
    13     7    12 1   
    14     7    16 1   
    15     8    13 1   
    16     8    14 1   
@<TRIPOS>SUBSTRUCTURE
     1 3RN         1 TEMP              0 ****  ****    0 ROOT
