@<TRIPOS>MOLECULE
3RO
   30    31     1     0     0
SMALL
abcg2


@<TRIPOS>ATOM
      1 OAA         -3.5390    -2.7950     0.0280 o          1 3RO      -0.688000
      2 CAN         -2.4640    -2.1750     0.1170 c          1 3RO       0.718200
      3 OAD         -1.3170    -2.6340     0.1600 o          1 3RO      -0.688000
      4 CAQ         -2.6260    -0.6410     0.1600 cc         1 3RO       0.026400
      5 NAL         -3.9250    -0.2660    -0.0440 ns         1 3RO      -0.494600
      6 CAS         -4.3800     1.0120    -0.0810 c          1 3RO       0.606000
      7 OAB         -5.5460     1.3130    -0.2580 o          1 3RO      -0.608000
      8 NAM         -3.3880     1.9410     0.0980 ns         1 3RO      -0.471500
      9 CAT         -2.0450     1.6920     0.3130 c          1 3RO       0.578200
     10 OAC         -1.2750     2.6300     0.4420 o          1 3RO      -0.588000
     11 CAR         -1.6590     0.2870     0.3640 cd         1 3RO      -0.295400
     12 CAK         -0.2050     0.0030     0.5940 c3         1 3RO       0.019800
     13 CAJ          0.5770    -0.1110    -0.7210 c3         1 3RO      -0.035100
     14 CAP          2.0210    -0.4390    -0.4740 ca         1 3RO      -0.046300
     15 CAI          2.9730     0.5720    -0.3840 ca         1 3RO      -0.108000
     16 CAO          4.2940     0.2520    -0.1130 ca         1 3RO       0.115000
     17 CL1          5.4680     1.5290    -0.0100 cl         1 3RO      -0.241000
     18 CAG          4.7010    -1.0590     0.0730 ca         1 3RO      -0.125000
     19 CAF          3.7480    -2.0650    -0.0140 ca         1 3RO      -0.112000
     20 CAH          2.4220    -1.7590    -0.2820 ca         1 3RO      -0.097000
     21 H2          -3.6720     2.9120     0.0640 hn         1 3RO       0.319500
     22 H4           0.2250     0.8090     1.1910 hc         1 3RO       0.057200
     23 H5          -0.0850    -0.9160     1.1610 hc         1 3RO       0.057200
     24 H6           0.1210    -0.8910    -1.3310 hc         1 3RO       0.056200
     25 H7           0.4960     0.8250    -1.2790 hc         1 3RO       0.056200
     26 H8           2.6830     1.6050    -0.5310 ha         1 3RO       0.129000
     27 H9           5.7370    -1.2930     0.2800 ha         1 3RO       0.113000
     28 H10          4.0480    -3.0940     0.1290 ha         1 3RO       0.108000
     29 H11          1.6840    -2.5500    -0.3420 ha         1 3RO       0.147000
     30 H12         -4.5800    -1.0310    -0.1620 hn         1 3RO       0.490000
@<TRIPOS>BOND
     1     1     2 1   
     2     2     3 1   
     3     2     4 1   
     4     4     5 1   
     5     4    11 2   
     6     5     6 1   
     7     5    30 1   
     8     6     7 2   
     9     6     8 1   
    10     8     9 1   
    11     8    21 1   
    12     9    10 2   
    13     9    11 1   
    14    11    12 1   
    15    12    13 1   
    16    12    22 1   
    17    12    23 1   
    18    13    14 1   
    19    13    24 1   
    20    13    25 1   
    21    14    15 ar  
    22    14    20 ar  
    23    15    16 ar  
    24    15    26 1   
    25    16    17 1   
    26    16    18 ar  
    27    18    19 ar  
    28    18    27 1   
    29    19    20 ar  
    30    19    28 1   
    31    20    29 1   
@<TRIPOS>SUBSTRUCTURE
     1 3RO         1 TEMP              0 ****  ****    0 ROOT
