@<TRIPOS>MOLECULE
3RO
   30    31     1     0     0
SMALL
No Charge or Current Charge


@<TRIPOS>ATOM
      1 OAA         -3.5470    -2.8750    -0.1180 o          1 3RO      -0.688000
      2 CAN         -2.5360    -2.2070     0.0750 c          1 3RO       0.718200
      3 OAD         -1.4390    -2.7310     0.2020 o          1 3RO      -0.688000
      4 CAQ         -2.6970    -0.6940     0.1370 cc         1 3RO       0.026400
      5 NAL         -3.9970    -0.2280    -0.0600 ns         1 3RO      -0.494600
      6 CAS         -4.3960     1.0660    -0.0750 c          1 3RO       0.606000
      7 OAB         -5.5520     1.3950    -0.2550 o          1 3RO      -0.608000
      8 NAM         -3.3970     1.9550     0.1230 ns         1 3RO      -0.471500
      9 CAT         -2.0750     1.7080     0.3360 c          1 3RO       0.578200
     10 OAC         -1.2950     2.6330     0.4930 o          1 3RO      -0.588000
     11 CAR         -1.7010     0.2600     0.3530 cd         1 3RO      -0.295400
     12 CAK         -0.2250    -0.0190     0.6060 c3         1 3RO       0.019800
     13 CAJ          0.5840    -0.1440    -0.7020 c3         1 3RO      -0.035100
     14 CAP          2.0520    -0.4530    -0.4430 ca         1 3RO      -0.046300
     15 CAI          3.0050     0.5850    -0.4100 ca         1 3RO      -0.108000
     16 CAO          4.3570     0.2950    -0.1660 ca         1 3RO       0.115000
     17 Cl1          5.5400     1.5960    -0.1270 cl         1 3RO      -0.241000
     18 CAG          4.7680    -1.0310     0.0490 ca         1 3RO      -0.125000
     19 CAF          3.8230    -2.0700     0.0200 ca         1 3RO      -0.112000
     20 CAH          2.4690    -1.7810    -0.2250 ca         1 3RO      -0.097000
     21 H2          -3.6650     2.9250     0.1120 hn         1 3RO       0.319500
     22 H4           0.2270     0.7730     1.2170 hc         1 3RO       0.057200
     23 H5          -0.0920    -0.9230     1.2100 hc         1 3RO       0.057200
     24 H6           0.1410    -0.9290    -1.3260 hc         1 3RO       0.056200
     25 H7           0.4860     0.7880    -1.2730 hc         1 3RO       0.056200
     26 H8           2.6980     1.6150    -0.5720 ha         1 3RO       0.129000
     27 H9           5.8160    -1.2510     0.2380 ha         1 3RO       0.113000
     28 H10          4.1380    -3.0980     0.1870 ha         1 3RO       0.108000
     29 H11          1.7400    -2.5900    -0.2430 ha         1 3RO       0.147000
     30 H12         -4.7380    -0.9060    -0.2150 hn         1 3RO       0.490000
@<TRIPOS>BOND
     1     1     2 1   
     2     2     3 1   
     3     2     4 1   
     4     4     5 1   
     5     4    11 2   
     6     5     6 1   
     7     5    30 1   
     8     6     7 2   
     9     6     8 1   
    10     8     9 1   
    11     8    21 1   
    12     9    10 2   
    13     9    11 1   
    14    11    12 1   
    15    12    13 1   
    16    12    22 1   
    17    12    23 1   
    18    13    14 1   
    19    13    24 1   
    20    13    25 1   
    21    14    15 ar  
    22    14    20 ar  
    23    15    16 ar  
    24    15    26 1   
    25    16    17 1   
    26    16    18 ar  
    27    18    19 ar  
    28    18    27 1   
    29    19    20 ar  
    30    19    28 1   
    31    20    29 1   
@<TRIPOS>SUBSTRUCTURE
     1 3RO         1 TEMP              0 ****  ****    0 ROOT
