@<TRIPOS>MOLECULE
3RP
   29    30     1     0     0
SMALL
No Charge or Current Charge


@<TRIPOS>ATOM
      1 N1          -4.1820    -0.5350     0.1170 nb         1 3RP      -0.259000
      2 N3          -4.2890     1.3220     1.4480 nv         1 3RP      -1.079900
      3 C4          -3.4250    -1.3950    -0.5910 ca         1 3RP       0.175300
      4 C5          -4.1400    -2.5320    -1.2960 c3         1 3RP      -0.152400
      5 C6           0.0450     0.0730    -0.0030 cp         1 3RP      -0.097500
      6 C7           0.6430     1.3450    -0.2320 ca         1 3RP       0.118000
      7 C8           2.0400     1.4890    -0.2190 ca         1 3RP      -0.070000
      8 C10          2.3080    -0.8920     0.2340 ca         1 3RP       0.149100
      9 C11          0.9030    -1.0370     0.2200 ca         1 3RP      -0.175000
     10 C3          -2.0320    -1.2350    -0.6740 ca         1 3RP      -0.279000
     11 C9           2.8700     0.3820     0.0160 ca         1 3RP       0.089000
     12 C2          -1.4380    -0.1420    -0.0000 cp         1 3RP       0.216500
     13 C1          -3.5270     0.4600     0.7310 ca         1 3RP       0.399900
     14 C12          2.6740    -3.2980     0.6860 c3         1 3RP       0.145900
     15 N2          -2.2090     0.7000     0.7170 nb         1 3RP      -0.237000
     16 O1           3.1570    -1.9620     0.4580 os         1 3RP      -0.321100
     17 Cl1         -0.3070     2.7860    -0.6000 cl         1 3RP      -0.178000
     18 Cl2          4.6200     0.6120     0.0220 cl         1 3RP      -0.172000
     19 HN3         -5.2950     1.3140     1.2970 hn         1 3RP       0.506500
     20 HN3A        -3.8810     2.2110     1.7310 hn         1 3RP       0.506500
     21 H5          -4.5360    -2.2010    -2.2640 hc         1 3RP       0.056033
     22 H5A         -3.4630    -3.3740    -1.4810 hc         1 3RP       0.056033
     23 H5B         -4.9790    -2.9080    -0.6990 hc         1 3RP       0.056033
     24 H8           2.4830     2.4640    -0.4000 ha         1 3RP       0.145000
     25 H11          0.4500    -2.0080     0.3960 ha         1 3RP       0.128000
     26 H3          -1.4250    -1.9290    -1.2490 ha         1 3RP       0.135000
     27 H12          2.0410    -3.3370     1.5820 h1         1 3RP       0.046367
     28 H12A         2.0930    -3.6560    -0.1730 h1         1 3RP       0.046367
     29 H12B         3.5160    -3.9860     0.8370 h1         1 3RP       0.046367
@<TRIPOS>BOND
     1     1     3 ar  
     2     1    13 ar  
     3     2    13 1   
     4     2    19 1   
     5     2    20 1   
     6     3     4 1   
     7     3    10 ar  
     8     4    21 1   
     9     4    22 1   
    10     4    23 1   
    11     5     6 ar  
    12     5     9 ar  
    13     5    12 1   
    14     6     7 ar  
    15     6    17 1   
    16     7    11 ar  
    17     7    24 1   
    18     8     9 ar  
    19     8    11 ar  
    20     8    16 1   
    21     9    25 1   
    22    10    12 ar  
    23    10    26 1   
    24    11    18 1   
    25    12    15 ar  
    26    13    15 ar  
    27    14    16 1   
    28    14    27 1   
    29    14    28 1   
    30    14    29 1   
@<TRIPOS>SUBSTRUCTURE
     1 3RP         1 TEMP              0 ****  ****    0 ROOT
