@<TRIPOS>MOLECULE
3RP
   29    30     1     0     0
SMALL
bcc


@<TRIPOS>ATOM
      1 N1          -4.1050    -0.5600     0.1240 nb         1 3RP      -0.785000
      2 N3          -4.1740     1.1520     1.6380 nv         1 3RP      -0.969500
      3 C4          -3.3910    -1.3380    -0.6740 ca         1 3RP       0.503600
      4 C5          -4.1270    -2.3550    -1.4850 c3         1 3RP      -0.152400
      5 C6           0.0380     0.0210    -0.0600 cp         1 3RP      -0.097500
      6 C7           0.6070     1.2390    -0.4110 ca         1 3RP       0.026400
      7 C8           1.9860     1.3950    -0.4340 ca         1 3RP      -0.088000
      8 C10          2.2620    -0.9090     0.2560 ca         1 3RP       0.149100
      9 C11          0.8780    -1.0420     0.2640 ca         1 3RP      -0.193000
     10 C3          -2.0080    -1.1960    -0.7800 ca         1 3RP      -0.427600
     11 C9           2.8000     0.3330    -0.0980 ca         1 3RP      -0.002600
     12 C2          -1.4270    -0.1960    -0.0170 cp         1 3RP       0.544800
     13 C1          -3.4460     0.3720     0.8240 ca         1 3RP       0.925900
     14 C12          2.6150    -3.1530     0.9230 c3         1 3RP       0.122700
     15 N2          -2.1280     0.5880     0.7870 nb         1 3RP      -0.763000
     16 O1           3.1250    -1.8790     0.5640 os         1 3RP      -0.297900
     17 CL1         -0.3720     2.5810    -0.8940 cl         1 3RP      -0.086400
     18 CL2          4.5120     0.5280    -0.1170 cl         1 3RP      -0.080400
     19 HN3         -5.1690     1.0350     1.7000 hn         1 3RP       0.451300
     20 HN3A        -3.7350     1.8810     2.1720 hn         1 3RP       0.451300
     21 H5          -4.4010    -1.9280    -2.4520 hc         1 3RP       0.056033
     22 H5A         -3.5140    -3.2330    -1.6800 hc         1 3RP       0.056033
     23 H5B         -5.0440    -2.6610    -0.9870 hc         1 3RP       0.056033
     24 H8           2.4240     2.3410    -0.7190 ha         1 3RP       0.163000
     25 H11          0.4240    -1.9830     0.5430 ha         1 3RP       0.146000
     26 H3          -1.4220    -1.8240    -1.4360 ha         1 3RP       0.153000
     27 H12          2.0060    -3.1030     1.8290 h1         1 3RP       0.046367
     28 H12A         2.0230    -3.5940     0.1170 h1         1 3RP       0.046367
     29 H12B         3.4790    -3.7830     1.1140 h1         1 3RP       0.046367
@<TRIPOS>BOND
     1     1     3 ar  
     2     1    13 ar  
     3     2    13 1   
     4     2    19 1   
     5     2    20 1   
     6     3     4 1   
     7     3    10 ar  
     8     4    21 1   
     9     4    22 1   
    10     4    23 1   
    11     5     6 ar  
    12     5     9 ar  
    13     5    12 1   
    14     6     7 ar  
    15     6    17 1   
    16     7    11 ar  
    17     7    24 1   
    18     8     9 ar  
    19     8    11 ar  
    20     8    16 1   
    21     9    25 1   
    22    10    12 ar  
    23    10    26 1   
    24    11    18 1   
    25    12    15 ar  
    26    13    15 ar  
    27    14    16 1   
    28    14    27 1   
    29    14    28 1   
    30    14    29 1   
@<TRIPOS>SUBSTRUCTURE
     1 3RP         1 TEMP              0 ****  ****    0 ROOT
