@<TRIPOS>MOLECULE
3RQ
   32    34     1     0     0
SMALL
No Charge or Current Charge


@<TRIPOS>ATOM
      1 N1          -4.0550    -0.2620     0.5830 nb         1 3RQ      -0.188000
      2 N3          -3.9830     1.8890    -0.6170 na         1 3RQ      -0.309400
      3 C4           0.8170    -1.3780    -0.6990 ca         1 3RQ       0.121000
      4 C5           2.2170    -1.4240    -0.7970 ca         1 3RQ      -0.069000
      5 C6           3.0080    -0.5090    -0.0850 ca         1 3RQ       0.094000
      6 C8          -1.2990    -0.3370     0.2380 cp         1 3RQ       0.234500
      7 C13         -1.7310     1.9390    -0.9830 cc         1 3RQ      -0.032900
      8 C15         -0.4530     2.3610    -1.4530 cg         1 3RQ       0.317700
      9 C2           0.9960     0.5090     0.8340 ca         1 3RQ      -0.169000
     10 C14         -2.9190     2.6230    -1.1920 cd         1 3RQ      -0.100100
     11 C12         -2.0720     0.7440    -0.2520 ca         1 3RQ      -0.159800
     12 C3           0.1850    -0.4080     0.1190 cp         1 3RQ      -0.105500
     13 C1           2.4050     0.4680     0.7350 ca         1 3RQ       0.157100
     14 C11         -3.4370     0.7450    -0.0600 ca         1 3RQ       0.128500
     15 C9          -3.2620    -1.2660     1.0260 ca         1 3RQ       0.163300
     16 N4           0.5800     2.7250    -1.8570 n1         1 3RQ      -0.456000
     17 N2          -1.9200    -1.3480     0.8810 nb         1 3RQ      -0.182000
     18 O1           3.2160     1.3570     1.4180 os         1 3RQ      -0.318100
     19 Cl1          4.7640    -0.5970    -0.2400 cl         1 3RQ      -0.169000
     20 H5           2.6900    -2.1680    -1.4310 ha         1 3RQ       0.146000
     21 H7           3.5010     2.9960     2.6820 h1         1 3RQ       0.047367
     22 H7A          2.0510     3.0830     1.6610 h1         1 3RQ       0.047367
     23 H7B          2.0920     1.9890     3.0710 h1         1 3RQ       0.047367
     24 H10         -4.1600    -3.2350     1.0480 hc         1 3RQ       0.062700
     25 H10A        -3.3120    -2.8170     2.5460 hc         1 3RQ       0.062700
     26 H10B        -4.8920    -2.1040     2.1980 hc         1 3RQ       0.062700
     27 H2           0.5030     1.2470     1.4610 ha         1 3RQ       0.129000
     28 H14         -3.0810     3.5660    -1.7110 h4         1 3RQ       0.232000
     29 HN3         -4.9660     2.1420    -0.6170 hn         1 3RQ       0.372000
     30 C10         -3.9440    -2.4170     1.7440 c3         1 3RQ      -0.132400
     31 Cl2         -0.1220    -2.5320    -1.6440 cl         1 3RQ      -0.179000
     32 C7           2.6850     2.4060     2.2470 c3         1 3RQ       0.144900
@<TRIPOS>BOND
     1     1    14 ar  
     2     1    15 ar  
     3     2    10 1   
     4     2    14 1   
     5     2    29 1   
     6     3     4 ar  
     7     3    12 ar  
     8     3    31 1   
     9     4     5 ar  
    10     4    20 1   
    11     5    13 ar  
    12     5    19 1   
    13     6    11 ar  
    14     6    12 1   
    15     6    17 ar  
    16     7     8 1   
    17     7    10 2   
    18     7    11 1   
    19     8    16 3   
    20     9    12 ar  
    21     9    13 ar  
    22     9    27 1   
    23    10    28 1   
    24    11    14 ar  
    25    13    18 1   
    26    15    17 ar  
    27    15    30 1   
    28    18    32 1   
    29    21    32 1   
    30    22    32 1   
    31    23    32 1   
    32    24    30 1   
    33    25    30 1   
    34    26    30 1   
@<TRIPOS>SUBSTRUCTURE
     1 3RQ         1 TEMP              0 ****  ****    0 ROOT
