@<TRIPOS>MOLECULE
3RQ
   32    34     1     0     0
SMALL
bcc


@<TRIPOS>ATOM
      1 N1          -4.0220    -0.2540     0.5660 nb         1 3RQ      -0.714000
      2 N3          -3.8670     1.9060    -0.4540 na         1 3RQ      -0.259100
      3 C4           0.8180    -1.4920    -0.5490 ca         1 3RQ       0.029400
      4 C5           2.2010    -1.5540    -0.6190 ca         1 3RQ      -0.087000
      5 C6           2.9610    -0.5910     0.0150 ca         1 3RQ       0.002400
      6 C8          -1.2780    -0.3610     0.2600 cp         1 3RQ       0.562800
      7 C13         -1.6700     2.0280    -0.8080 cc         1 3RQ      -0.032900
      8 C15         -0.4280     2.5390    -1.2360 cg         1 3RQ       0.228500
      9 C2           0.9750     0.4910     0.7860 ca         1 3RQ      -0.187000
     10 C14         -2.8740     2.6760    -0.9520 cd         1 3RQ      -0.050100
     11 C12         -1.9580     0.7730    -0.1760 ca         1 3RQ      -0.290400
     12 C3           0.1930    -0.4720     0.1570 cp         1 3RQ      -0.105500
     13 C1           2.3630     0.4570     0.7220 ca         1 3RQ       0.157100
     14 C11         -3.3480     0.7420     0.0220 ca         1 3RQ       0.456800
     15 C9          -3.2750    -1.2840     0.9360 ca         1 3RQ       0.689300
     16 N4           0.5860     2.9650    -1.5860 n1         1 3RQ      -0.366800
     17 N2          -1.9450    -1.3650     0.8010 nb         1 3RQ      -0.708000
     18 O1           3.1750     1.3530     1.2860 os         1 3RQ      -0.294900
     19 CL1          4.6800    -0.6650    -0.0730 cl         1 3RQ      -0.077400
     20 H5           2.6870    -2.3450    -1.1730 ha         1 3RQ       0.164000
     21 H7           3.4300     3.1020     2.2500 h1         1 3RQ       0.047367
     22 H7A          1.9780     3.0580     1.2320 h1         1 3RQ       0.047367
     23 H7B          2.0050     2.2000     2.7930 h1         1 3RQ       0.047367
     24 H10         -3.9560    -3.3040     0.8450 hc         1 3RQ       0.062700
     25 H10A        -3.4340    -2.7930     2.4410 hc         1 3RQ       0.062700
     26 H10B        -4.9900    -2.2350     1.7980 hc         1 3RQ       0.062700
     27 H2           0.4760     1.2720     1.3440 ha         1 3RQ       0.147000
     28 H14         -3.0770     3.6430    -1.3830 h4         1 3RQ       0.182000
     29 HN3         -4.8450     2.1550    -0.4460 hn         1 3RQ       0.321700
     30 C10         -3.9580    -2.4650     1.5440 c3         1 3RQ      -0.132400
     31 CL2         -0.1010    -2.6770    -1.4090 cl         1 3RQ      -0.087400
     32 C7           2.6000     2.4830     1.9220 c3         1 3RQ       0.121700
@<TRIPOS>BOND
     1     1    14 ar  
     2     1    15 ar  
     3     2    10 1   
     4     2    14 1   
     5     2    29 1   
     6     3     4 ar  
     7     3    12 ar  
     8     3    31 1   
     9     4     5 ar  
    10     4    20 1   
    11     5    13 ar  
    12     5    19 1   
    13     6    11 ar  
    14     6    12 1   
    15     6    17 ar  
    16     7     8 1   
    17     7    10 2   
    18     7    11 1   
    19     8    16 3   
    20     9    12 ar  
    21     9    13 ar  
    22     9    27 1   
    23    10    28 1   
    24    11    14 ar  
    25    13    18 1   
    26    15    17 ar  
    27    15    30 1   
    28    18    32 1   
    29    21    32 1   
    30    22    32 1   
    31    23    32 1   
    32    24    30 1   
    33    25    30 1   
    34    26    30 1   
@<TRIPOS>SUBSTRUCTURE
     1 3RQ         1 TEMP              0 ****  ****    0 ROOT
