@<TRIPOS>MOLECULE
3RR
   35    37     1     0     0
SMALL
abcg2


@<TRIPOS>ATOM
      1 N1          -3.8030    -0.8950     0.6790 nb         1 3RR      -0.189000
      2 N3          -3.9140     1.3400    -0.1630 na         1 3RR      -0.314400
      3 C4          -1.8860     0.4070    -0.0220 ca         1 3RR      -0.153800
      4 C5          -1.7620     1.7310    -0.5620 cc         1 3RR      -0.036900
      5 C6          -3.0340     2.2640    -0.6290 cd         1 3RR       0.007700
      6 C8           0.3960    -0.6140     0.1760 cp         1 3RR      -0.104500
      7 C10          2.4940    -1.4250    -0.6860 ca         1 3RR      -0.070000
      8 C13          1.0840     0.3870     0.8570 ca         1 3RR      -0.169000
      9 C15         -0.5980     2.4030    -0.9840 cg         1 3RR       0.320700
     10 C12          2.4660     0.5040     0.7780 ca         1 3RR       0.156100
     11 C9           1.1130    -1.5150    -0.6000 ca         1 3RR       0.121000
     12 C11          3.1590    -0.4290     0.0010 ca         1 3RR       0.094000
     13 C2          -1.0750    -0.6720     0.3110 cp         1 3RR       0.231500
     14 C3          -3.2570     0.2070     0.2040 ca         1 3RR       0.133500
     15 C1          -2.9370    -1.8650     0.9470 ca         1 3RR       0.161300
     16 C16         -3.4770     3.5930    -1.1060 c3         1 3RR      -0.052900
     17 C14          2.5090     2.4820     2.0770 c3         1 3RR       0.144900
     18 N4           0.3490     2.9650    -1.3300 n1         1 3RR      -0.463000
     19 N2          -1.6130    -1.7860     0.7840 nb         1 3RR      -0.182000
     20 O1           3.1890     1.4440     1.3900 os         1 3RR      -0.319100
     21 CL2          0.3120    -2.7370    -1.5220 cl         1 3RR      -0.178000
     22 CL1          4.8750    -0.3170    -0.1070 cl         1 3RR      -0.170000
     23 H7          -3.3680    -3.9380     0.7030 hc         1 3RR       0.062033
     24 H7A         -2.9120    -3.4900     2.3370 hc         1 3RR       0.062033
     25 H7B         -4.5240    -3.0780     1.7240 hc         1 3RR       0.062033
     26 H10          3.0510    -2.1250    -1.2930 ha         1 3RR       0.146000
     27 H13          0.5150     1.0740     1.4700 ha         1 3RR       0.129000
     28 H16         -3.9330     4.1600    -0.2940 hc         1 3RR       0.063700
     29 H16A        -2.6390     4.1670    -1.4940 hc         1 3RR       0.063700
     30 H16B        -4.2190     3.4910    -1.8970 hc         1 3RR       0.063700
     31 H14          1.8280     3.0210     1.4150 h1         1 3RR       0.047700
     32 H14A         1.9510     2.1030     2.9370 h1         1 3RR       0.047700
     33 H14B         3.2770     3.1650     2.4300 h1         1 3RR       0.047700
     34 HN3         -4.9140     1.4710    -0.1090 hn         1 3RR       0.369000
     35 C7          -3.4720    -3.1620     1.4620 c3         1 3RR      -0.132400
@<TRIPOS>BOND
     1     1    14 ar  
     2     1    15 ar  
     3     2     5 1   
     4     2    14 1   
     5     2    34 1   
     6     3     4 1   
     7     3    13 ar  
     8     3    14 ar  
     9     4     5 2   
    10     4     9 1   
    11     5    16 1   
    12     6     8 ar  
    13     6    11 ar  
    14     6    13 1   
    15     7    11 ar  
    16     7    12 ar  
    17     7    26 1   
    18     8    10 ar  
    19     8    27 1   
    20     9    18 3   
    21    10    12 ar  
    22    10    20 1   
    23    11    21 1   
    24    12    22 1   
    25    13    19 ar  
    26    15    19 ar  
    27    15    35 1   
    28    16    28 1   
    29    16    29 1   
    30    16    30 1   
    31    17    20 1   
    32    17    31 1   
    33    17    32 1   
    34    17    33 1   
    35    23    35 1   
    36    24    35 1   
    37    25    35 1   
@<TRIPOS>SUBSTRUCTURE
     1 3RR         1 TEMP              0 ****  ****    0 ROOT
