@<TRIPOS>MOLECULE
3RR
   35    37     1     0     0
SMALL
No Charge or Current Charge


@<TRIPOS>ATOM
      1 N1          -3.8330    -0.9270     0.7060 nb         1 3RR      -0.189000
      2 N3          -4.0430     1.3190    -0.2830 na         1 3RR      -0.314400
      3 C4          -2.0040     0.3780    -0.0640 ca         1 3RR      -0.153800
      4 C5          -1.8250     1.6670    -0.6820 cc         1 3RR      -0.036900
      5 C6          -3.0920     2.2220    -0.8010 cd         1 3RR       0.007700
      6 C8           0.3790    -0.5320     0.1550 cp         1 3RR      -0.104500
      7 C10          2.4860    -1.2060    -0.8980 ca         1 3RR      -0.070000
      8 C13          1.1010     0.3970     0.9460 ca         1 3RR      -0.169000
      9 C15         -0.6140     2.2730    -1.1310 cg         1 3RR       0.320700
     10 C12          2.5020     0.5320     0.8180 ca         1 3RR       0.156100
     11 C9           1.0940    -1.3340    -0.7700 ca         1 3RR       0.121000
     12 C11          3.1880    -0.2800    -0.1100 ca         1 3RR       0.094000
     13 C2          -1.0990    -0.6460     0.3060 cp         1 3RR       0.231500
     14 C3          -3.3530     0.2010     0.1520 ca         1 3RR       0.133500
     15 C1          -2.9180    -1.8690     1.0370 ca         1 3RR       0.161300
     16 C16         -3.4790     3.5550    -1.3880 c3         1 3RR      -0.052900
     17 C14          2.6040     2.3280     2.5160 c3         1 3RR       0.144900
     18 N4           0.3610     2.7860    -1.5160 n1         1 3RR      -0.463000
     19 N2          -1.5800    -1.7790     0.8600 nb         1 3RR      -0.182000
     20 O1           3.2260     1.4370     1.5730 os         1 3RR      -0.319100
     21 Cl2          0.2640    -2.4890    -1.8120 cl         1 3RR      -0.178000
     22 Cl1          4.9370    -0.1470    -0.3050 cl         1 3RR      -0.170000
     23 H7          -3.5790    -3.9240     0.8860 hc         1 3RR       0.062033
     24 H7A         -2.7480    -3.5480     2.4040 hc         1 3RR       0.062033
     25 H7B         -4.4090    -2.9980     2.1480 hc         1 3RR       0.062033
     26 H10          3.0220    -1.8220    -1.6140 ha         1 3RR       0.146000
     27 H13          0.5460     1.0070     1.6540 ha         1 3RR       0.129000
     28 H16         -2.9740     4.3760    -0.8650 hc         1 3RR       0.063700
     29 H16A        -3.2030     3.6120    -2.4480 hc         1 3RR       0.063700
     30 H16B        -4.5600     3.7290    -1.3150 hc         1 3RR       0.063700
     31 H14          1.8790     2.9820     2.0150 h1         1 3RR       0.047700
     32 H14A         2.0870     1.7650     3.3030 h1         1 3RR       0.047700
     33 H14B         3.3590     2.9630     2.9940 h1         1 3RR       0.047700
     34 HN3         -5.0470     1.4550    -0.2410 hn         1 3RR       0.369000
     35 C7          -3.4420    -3.1530     1.6530 c3         1 3RR      -0.132400
@<TRIPOS>BOND
     1     1    14 ar  
     2     1    15 ar  
     3     2     5 1   
     4     2    14 1   
     5     2    34 1   
     6     3     4 1   
     7     3    13 ar  
     8     3    14 ar  
     9     4     5 2   
    10     4     9 1   
    11     5    16 1   
    12     6     8 ar  
    13     6    11 ar  
    14     6    13 1   
    15     7    11 ar  
    16     7    12 ar  
    17     7    26 1   
    18     8    10 ar  
    19     8    27 1   
    20     9    18 3   
    21    10    12 ar  
    22    10    20 1   
    23    11    21 1   
    24    12    22 1   
    25    13    19 ar  
    26    15    19 ar  
    27    15    35 1   
    28    16    28 1   
    29    16    29 1   
    30    16    30 1   
    31    17    20 1   
    32    17    31 1   
    33    17    32 1   
    34    17    33 1   
    35    23    35 1   
    36    24    35 1   
    37    25    35 1   
@<TRIPOS>SUBSTRUCTURE
     1 3RR         1 TEMP              0 ****  ****    0 ROOT
