@<TRIPOS>MOLECULE
3RS
   65    68     1     0     0
SMALL
bcc


@<TRIPOS>ATOM
      1 C26         -6.4410    -0.4290     0.6580 c6         1 3RS      -0.114400
      2 C27         -7.9330    -0.1190     0.4690 c6         1 3RS       0.165800
      3 C31         -8.4080    -0.5140    -0.9320 c3         1 3RS      -0.100600
      4 C32         -8.7470    -0.8820     1.5050 c3         1 3RS      -0.100600
      5 O28         -8.1850     1.2600     0.7290 os         1 3RS      -0.410600
      6 C29         -7.4010     2.1710    -0.0100 c6         1 3RS       0.139400
      7 C30         -5.9140     1.9580     0.2140 c6         1 3RS      -0.133400
      8 C25         -5.5430     0.5180    -0.1290 c6         1 3RS       0.113700
      9 N15         -4.1550     0.2190     0.1620 ns         1 3RS      -0.571900
     10 C14         -3.1390     0.5000    -0.6690 c          1 3RS       0.663100
     11 O16         -3.2980     0.9690    -1.7880 o          1 3RS      -0.601100
     12 C13         -1.7540     0.2160    -0.1100 c3         1 3RS      -0.140700
     13 C17         -1.1600     1.5200     0.4220 c3         1 3RS      -0.087100
     14 C12         -0.8690    -0.4210    -1.1970 c3         1 3RS      -0.016100
     15 C9           0.4570    -0.8810    -0.6690 ca         1 3RS      -0.243600
     16 C8           0.5840    -2.1030     0.0850 ca         1 3RS       0.694200
     17 N7           1.7180    -2.5110     0.6040 nb         1 3RS      -0.766000
     18 N11         -0.4920    -2.9140     0.2420 nv         1 3RS      -0.966500
     19 C10          1.5920    -0.1560    -0.8620 ca         1 3RS      -0.045000
     20 C5           2.8360    -0.5750    -0.3270 ca         1 3RS      -0.195300
     21 C6           4.0300     0.1490    -0.4970 ca         1 3RS      -0.080000
     22 C4           2.8350    -1.7740     0.4190 ca         1 3RS       0.459600
     23 C3           4.0540    -2.2110     0.9800 ca         1 3RS      -0.192300
     24 C2           5.2020    -1.4840     0.8080 ca         1 3RS      -0.094000
     25 C1           5.2120    -0.2820     0.0630 cp         1 3RS      -0.056000
     26 C18          6.4700     0.4730    -0.1400 cp         1 3RS      -0.035000
     27 C19          6.9030     0.7220    -1.4420 ca         1 3RS      -0.116000
     28 C20          8.0770     1.4180    -1.6900 ca         1 3RS      -0.133000
     29 C21          8.8330     1.8800    -0.6240 ca         1 3RS      -0.123000
     30 C22          8.4020     1.6490     0.6740 ca         1 3RS      -0.132000
     31 C23          7.2260     0.9500     0.9420 ca         1 3RS      -0.060300
     32 C24          6.7920     0.7570     2.3680 c3         1 3RS      -0.047800
     33 H26         -6.1950    -0.3430     1.7230 hc         1 3RS       0.050700
     34 H26A        -6.2470    -1.4640     0.3670 hc         1 3RS       0.050700
     35 H31         -8.2800    -1.5870    -1.0780 hc         1 3RS       0.043533
     36 H31A        -9.4670    -0.2840    -1.0540 hc         1 3RS       0.043533
     37 H31B        -7.8650    -0.0140    -1.7350 hc         1 3RS       0.043533
     38 H32         -8.4610    -0.5990     2.5180 hc         1 3RS       0.043533
     39 H32A        -9.8150    -0.6920     1.3830 hc         1 3RS       0.043533
     40 H32B        -8.5870    -1.9560     1.3980 hc         1 3RS       0.043533
     41 H29         -7.6230     2.1100    -1.0840 h1         1 3RS       0.047700
     42 H29A        -7.6980     3.1680     0.3170 h1         1 3RS       0.047700
     43 H30         -5.3490     2.6600    -0.4030 hc         1 3RS       0.057700
     44 H30A        -5.6580     2.1580     1.2590 hc         1 3RS       0.057700
     45 H25         -5.6880     0.3600    -1.2010 h1         1 3RS       0.079700
     46 HN15        -3.9350    -0.1040     1.0910 hn         1 3RS       0.308500
     47 H13         -1.8470    -0.4760     0.7340 hc         1 3RS       0.043700
     48 H17         -0.1740     1.3490     0.8540 hc         1 3RS       0.045367
     49 H17A        -1.0570     2.2590    -0.3740 hc         1 3RS       0.045367
     50 H17B        -1.7910     1.9470     1.2030 hc         1 3RS       0.045367
     51 H12         -1.4000    -1.2560    -1.6640 hc         1 3RS       0.065700
     52 H12A        -0.7050     0.3120    -1.9880 hc         1 3RS       0.065700
     53 HN11        -1.4240    -2.5730     0.0940 hn         1 3RS       0.425800
     54 HN1A        -0.4100    -3.6640     0.9070 hn         1 3RS       0.425800
     55 H10          1.5500     0.7630    -1.4390 ha         1 3RS       0.136000
     56 H6           4.0070     1.0700    -1.0710 ha         1 3RS       0.133000
     57 H3           4.0660    -3.1350     1.5440 ha         1 3RS       0.147000
     58 H2           6.1280    -1.8490     1.2350 ha         1 3RS       0.135000
     59 H19          6.3150     0.3500    -2.2720 ha         1 3RS       0.133000
     60 H20          8.3980     1.5930    -2.7090 ha         1 3RS       0.131000
     61 H21          9.7520     2.4260    -0.8000 ha         1 3RS       0.130000
     62 H22          8.9860     2.0290     1.5040 ha         1 3RS       0.128000
     63 H24          7.0310    -0.2430     2.7350 hc         1 3RS       0.043700
     64 H24A         7.2920     1.4690     3.0230 hc         1 3RS       0.043700
     65 H24B         5.7160     0.8910     2.4870 hc         1 3RS       0.043700
@<TRIPOS>BOND
     1     1     2 1   
     2     1     8 1   
     3     1    33 1   
     4     1    34 1   
     5     2     3 1   
     6     2     4 1   
     7     2     5 1   
     8     3    35 1   
     9     3    36 1   
    10     3    37 1   
    11     4    38 1   
    12     4    39 1   
    13     4    40 1   
    14     5     6 1   
    15     6     7 1   
    16     6    41 1   
    17     6    42 1   
    18     7     8 1   
    19     7    43 1   
    20     7    44 1   
    21     8     9 1   
    22     8    45 1   
    23     9    10 1   
    24     9    46 1   
    25    10    11 2   
    26    10    12 1   
    27    12    13 1   
    28    12    14 1   
    29    12    47 1   
    30    13    48 1   
    31    13    49 1   
    32    13    50 1   
    33    14    15 1   
    34    14    51 1   
    35    14    52 1   
    36    15    16 ar  
    37    15    19 ar  
    38    16    17 ar  
    39    16    18 1   
    40    17    22 ar  
    41    18    53 1   
    42    18    54 1   
    43    19    20 ar  
    44    19    55 1   
    45    20    21 ar  
    46    20    22 ar  
    47    21    25 ar  
    48    21    56 1   
    49    22    23 ar  
    50    23    24 ar  
    51    23    57 1   
    52    24    25 ar  
    53    24    58 1   
    54    25    26 1   
    55    26    27 ar  
    56    26    31 ar  
    57    27    28 ar  
    58    27    59 1   
    59    28    29 ar  
    60    28    60 1   
    61    29    30 ar  
    62    29    61 1   
    63    30    31 ar  
    64    30    62 1   
    65    31    32 1   
    66    32    63 1   
    67    32    64 1   
    68    32    65 1   
@<TRIPOS>SUBSTRUCTURE
     1 3RS         1 TEMP              0 ****  ****    0 ROOT
