@<TRIPOS>MOLECULE
3RS
   65    68     1     0     0
SMALL
No Charge or Current Charge


@<TRIPOS>ATOM
      1 C26         -6.4750    -0.5420     0.4870 c6         1 3RS      -0.114400
      2 C27         -7.9960    -0.2890     0.2760 c6         1 3RS       0.189000
      3 C31         -8.4510    -0.4550    -1.2090 c3         1 3RS      -0.100600
      4 C32         -8.8410    -1.2590     1.1460 c3         1 3RS      -0.100600
      5 O28         -8.3310     1.0430     0.7350 os         1 3RS      -0.457000
      6 C29         -7.6030     2.1290     0.1160 c6         1 3RS       0.162600
      7 C30         -6.0870     1.9510     0.3580 c6         1 3RS      -0.133400
      8 C25         -5.6080     0.5710    -0.1560 c6         1 3RS       0.113700
      9 N15         -4.1940     0.3630     0.1710 ns         1 3RS      -0.504900
     10 C14         -3.1260     0.8470    -0.5490 c          1 3RS       0.596100
     11 O16         -3.2760     1.4980    -1.5740 o          1 3RS      -0.601100
     12 C13         -1.7370     0.5030     0.0270 c3         1 3RS      -0.140700
     13 C17         -0.9900     1.7910     0.4560 c3         1 3RS      -0.087100
     14 C12         -0.9280    -0.3610    -0.9790 c3         1 3RS      -0.016100
     15 C9           0.4160    -0.8410    -0.4280 ca         1 3RS      -0.178300
     16 C8           0.5490    -1.9990     0.3640 ca         1 3RS       0.628900
     17 N7           1.6840    -2.4600     0.8680 nb         1 3RS      -0.766000
     18 N11         -0.4560    -2.7980     0.7330 nv         1 3RS      -1.076900
     19 C10          1.5910    -0.1260    -0.7150 ca         1 3RS      -0.027000
     20 C5           2.8090    -0.5960    -0.1910 ca         1 3RS      -0.130000
     21 C6           4.0050     0.1000    -0.4530 ca         1 3RS      -0.062000
     22 C4           2.8170    -1.7720     0.6010 ca         1 3RS       0.329000
     23 C3           4.0460    -2.2250     1.1120 ca         1 3RS      -0.109000
     24 C2           5.2400    -1.5300     0.8500 ca         1 3RS      -0.076000
     25 C1           5.2380    -0.3500     0.0710 cp         1 3RS      -0.056000
     26 C18          6.5020     0.3910    -0.2240 cp         1 3RS      -0.035000
     27 C19          6.8490     0.6500    -1.5730 ca         1 3RS      -0.098000
     28 C20          8.0300     1.3330    -1.9030 ca         1 3RS      -0.115000
     29 C21          8.8870     1.7760    -0.8860 ca         1 3RS      -0.105000
     30 C22          8.5580     1.5420     0.4590 ca         1 3RS      -0.114000
     31 C23          7.3730     0.8590     0.8040 ca         1 3RS      -0.060300
     32 C24          7.0560     0.6740     2.2850 c3         1 3RS      -0.047800
     33 H26         -6.2620    -0.5930     1.5640 hc         1 3RS       0.050700
     34 H26A        -6.1960    -1.5200     0.0710 hc         1 3RS       0.050700
     35 H31         -8.3550    -1.4980    -1.5320 hc         1 3RS       0.043533
     36 H31A        -9.5020    -0.1680    -1.3350 hc         1 3RS       0.043533
     37 H31B        -7.8580     0.1470    -1.9060 hc         1 3RS       0.043533
     38 H32         -8.6070    -1.1450     2.2110 hc         1 3RS       0.043533
     39 H32A        -9.9150    -1.0740     1.0220 hc         1 3RS       0.043533
     40 H32B        -8.6500    -2.3040     0.8760 hc         1 3RS       0.043533
     41 H29         -7.8230     2.1700    -0.9600 h1         1 3RS       0.047700
     42 H29A        -7.9390     3.0770     0.5590 h1         1 3RS       0.047700
     43 H30         -5.5360     2.7550    -0.1480 hc         1 3RS       0.057700
     44 H30A        -5.8760     2.0500     1.4310 hc         1 3RS       0.057700
     45 H25         -5.7210     0.5310    -1.2500 h1         1 3RS       0.079700
     46 HN15        -3.9710    -0.1590     1.0100 hn         1 3RS       0.308500
     47 H13         -1.8880    -0.0950     0.9340 hc         1 3RS       0.043700
     48 H17         -0.0550     1.5510     0.9760 hc         1 3RS       0.045367
     49 H17A        -0.7510     2.4140    -0.4140 hc         1 3RS       0.045367
     50 H17B        -1.6100     2.3840     1.1400 hc         1 3RS       0.045367
     51 H12         -1.5370    -1.2210    -1.2850 hc         1 3RS       0.065700
     52 H12A        -0.7680     0.2190    -1.8980 hc         1 3RS       0.065700
     53 HN11        -1.3810    -2.3920     0.7590 hn         1 3RS       0.481000
     54 HN1A        -0.2220    -3.4430     1.4770 hn         1 3RS       0.481000
     55 H10          1.5580     0.7760    -1.3240 ha         1 3RS       0.118000
     56 H6           3.9830     1.0020    -1.0600 ha         1 3RS       0.115000
     57 H3           4.0730    -3.1280     1.7140 ha         1 3RS       0.129000
     58 H2           6.1770    -1.9140     1.2460 ha         1 3RS       0.117000
     59 H19          6.1960     0.3040    -2.3700 ha         1 3RS       0.115000
     60 H20          8.2800     1.5160    -2.9460 ha         1 3RS       0.113000
     61 H21          9.8030     2.3050    -1.1380 ha         1 3RS       0.112000
     62 H22          9.2270     1.8990     1.2380 ha         1 3RS       0.110000
     63 H24          7.3840    -0.3100     2.6380 hc         1 3RS       0.043700
     64 H24A         7.5590     1.4290     2.9010 hc         1 3RS       0.043700
     65 H24B         5.9810     0.7660     2.4830 hc         1 3RS       0.043700
@<TRIPOS>BOND
     1     1     2 1   
     2     1     8 1   
     3     1    33 1   
     4     1    34 1   
     5     2     3 1   
     6     2     4 1   
     7     2     5 1   
     8     3    35 1   
     9     3    36 1   
    10     3    37 1   
    11     4    38 1   
    12     4    39 1   
    13     4    40 1   
    14     5     6 1   
    15     6     7 1   
    16     6    41 1   
    17     6    42 1   
    18     7     8 1   
    19     7    43 1   
    20     7    44 1   
    21     8     9 1   
    22     8    45 1   
    23     9    10 1   
    24     9    46 1   
    25    10    11 2   
    26    10    12 1   
    27    12    13 1   
    28    12    14 1   
    29    12    47 1   
    30    13    48 1   
    31    13    49 1   
    32    13    50 1   
    33    14    15 1   
    34    14    51 1   
    35    14    52 1   
    36    15    16 ar  
    37    15    19 ar  
    38    16    17 ar  
    39    16    18 1   
    40    17    22 ar  
    41    18    53 1   
    42    18    54 1   
    43    19    20 ar  
    44    19    55 1   
    45    20    21 ar  
    46    20    22 ar  
    47    21    25 ar  
    48    21    56 1   
    49    22    23 ar  
    50    23    24 ar  
    51    23    57 1   
    52    24    25 ar  
    53    24    58 1   
    54    25    26 1   
    55    26    27 ar  
    56    26    31 ar  
    57    27    28 ar  
    58    27    59 1   
    59    28    29 ar  
    60    28    60 1   
    61    29    30 ar  
    62    29    61 1   
    63    30    31 ar  
    64    30    62 1   
    65    31    32 1   
    66    32    63 1   
    67    32    64 1   
    68    32    65 1   
@<TRIPOS>SUBSTRUCTURE
     1 3RS         1 TEMP              0 ****  ****    0 ROOT
