@<TRIPOS>MOLECULE
3RT
   62    67     1     0     0
SMALL
No Charge or Current Charge


@<TRIPOS>ATOM
      1 C1          -6.0490    -0.6020    -0.8410 c3         1 3RT      -0.030100
      2 C2          -2.9620    -2.1400     0.8350 cc         1 3RT      -0.031000
      3 C3          -5.1690    -1.4860     0.0190 cc         1 3RT      -0.026300
      4 C4          -5.6740    -2.4930     0.8470 cd         1 3RT      -0.174000
      5 C5          -4.8530    -3.3370     1.6820 cd         1 3RT      -0.067000
      6 C6          -3.4940    -3.1520     1.6740 cc         1 3RT      -0.111000
      7 N1          -3.7630    -1.3560     0.0460 na         1 3RT       0.308400
      8 N2          -1.7170    -1.7590     0.6470 nd         1 3RT      -0.444300
      9 N3          -3.0720    -0.4430    -0.6790 nc         1 3RT      -0.677100
     10 O1           9.7560     1.1700     0.5520 os         1 3RT      -0.452000
     11 C7          -1.8610    -0.7530    -0.2850 cd         1 3RT       0.772200
     12 C8           0.5510    -0.0760    -0.6250 ca         1 3RT       0.366000
     13 C9           1.2810     1.0750    -1.0060 ca         1 3RT      -0.216000
     14 C10          2.6900     1.1060    -0.9240 ca         1 3RT       0.006000
     15 C11          3.3270    -0.0490    -0.4590 ca         1 3RT      -0.297900
     16 C12          2.6350    -1.1610    -0.1040 ca         1 3RT       0.027800
     17 C13          1.2410    -1.2240    -0.1740 ca         1 3RT      -0.195000
     18 C14          4.7060    -0.3850    -0.2540 cc         1 3RT       0.586800
     19 C15          7.1550     0.1690    -0.1940 c6         1 3RT       0.216500
     20 O2          -7.3010     3.3880     0.3190 os         1 3RT      -0.449000
     21 C21         -5.7090     1.5420     0.5720 c6         1 3RT      -0.111900
     22 C22         -6.4320     2.7250     1.2610 c6         1 3RT       0.155600
     23 C23         -8.3440     2.5410    -0.2080 c6         1 3RT       0.155600
     24 C24         -7.7190     1.3510    -0.9750 c6         1 3RT      -0.111900
     25 C20         -6.7340     0.5630    -0.0670 c6         1 3RT      -0.054700
     26 N4          -0.8340    -0.0270    -0.7470 nu         1 3RT      -0.887200
     27 N6           3.5590    -2.1080     0.2880 na         1 3RT      -0.073400
     28 N5           4.8780    -1.6290     0.1970 nd         1 3RT      -0.597100
     29 N7           5.7480     0.4620    -0.4930 nu         1 3RT      -0.847400
     30 C16          8.0610     0.9220    -1.1950 c6         1 3RT      -0.131900
     31 C17          9.5470     0.7350    -0.8100 c6         1 3RT       0.157600
     32 C18          8.9960     0.4260     1.5290 c6         1 3RT       0.157600
     33 C19          7.4840     0.5960     1.2560 c6         1 3RT      -0.131900
     34 H1          -5.4800    -0.1990    -1.6880 hc         1 3RT       0.072200
     35 H2          -6.8220    -1.2320    -1.2980 hc         1 3RT       0.072200
     36 H3          -6.7490    -2.6480     0.8700 ha         1 3RT       0.134000
     37 H4          -5.3010    -4.1020     2.3080 ha         1 3RT       0.127000
     38 H5          -2.8310    -3.7560     2.2860 ha         1 3RT       0.148000
     39 H6           0.7560     1.9560    -1.3630 ha         1 3RT       0.111000
     40 H7           3.2510     1.9920    -1.2140 ha         1 3RT       0.114000
     41 H8           0.7230    -2.1360     0.0980 ha         1 3RT       0.157000
     42 H9           7.3580    -0.9090    -0.2970 h1         1 3RT       0.077700
     43 H10         -5.0270     1.9310    -0.1970 hc         1 3RT       0.054950
     44 H11         -5.0860     1.0190     1.3100 hc         1 3RT       0.054950
     45 H12         -5.6940     3.4470     1.6380 h1         1 3RT       0.043950
     46 H13         -7.0260     2.3650     2.1140 h1         1 3RT       0.043950
     47 H14         -8.9710     2.1760     0.6190 h1         1 3RT       0.043950
     48 H15         -8.9790     3.1310    -0.8840 h1         1 3RT       0.043950
     49 H16         -8.5160     0.6870    -1.3380 hc         1 3RT       0.054950
     50 H17         -7.1940     1.7280    -1.8640 hc         1 3RT       0.054950
     51 H18         -7.3150     0.0970     0.7420 hc         1 3RT       0.044700
     52 H19         -1.1930     0.7600    -1.2710 hn         1 3RT       0.511000
     53 H20          3.3500    -3.0530     0.6110 hn         1 3RT       0.376000
     54 H21          5.4780     1.3940    -0.7890 hn         1 3RT       0.463000
     55 H22          7.8920     0.5490    -2.2150 hc         1 3RT       0.055700
     56 H23          7.8210     1.9930    -1.2020 hc         1 3RT       0.055700
     57 H24         10.1860     1.3290    -1.4780 h1         1 3RT       0.045450
     58 H25          9.8390    -0.3210    -0.9050 h1         1 3RT       0.045450
     59 H26          9.2780    -0.6360     1.4790 h1         1 3RT       0.045450
     60 H27          9.2410     0.8000     2.5330 h1         1 3RT       0.045450
     61 H28          7.1990     1.6440     1.4200 hc         1 3RT       0.055700
     62 H29          6.9080    -0.0070     1.9700 hc         1 3RT       0.055700
@<TRIPOS>BOND
     1     1     3 1   
     2     1    25 1   
     3     1    34 1   
     4     1    35 1   
     5     2     6 1   
     6     2     7 1   
     7     2     8 2   
     8     3     4 2   
     9     3     7 1   
    10     4     5 1   
    11     4    36 1   
    12     5     6 2   
    13     5    37 1   
    14     6    38 1   
    15     7     9 1   
    16     8    11 1   
    17     9    11 2   
    18    10    31 1   
    19    10    32 1   
    20    11    26 1   
    21    12    13 ar  
    22    12    17 ar  
    23    12    26 1   
    24    13    14 ar  
    25    13    39 1   
    26    14    15 ar  
    27    14    40 1   
    28    15    16 ar  
    29    15    18 1   
    30    16    17 ar  
    31    16    27 1   
    32    17    41 1   
    33    18    28 2   
    34    18    29 1   
    35    19    29 1   
    36    19    30 1   
    37    19    33 1   
    38    19    42 1   
    39    20    22 1   
    40    20    23 1   
    41    21    22 1   
    42    21    25 1   
    43    21    43 1   
    44    21    44 1   
    45    22    45 1   
    46    22    46 1   
    47    23    24 1   
    48    23    47 1   
    49    23    48 1   
    50    24    25 1   
    51    24    49 1   
    52    24    50 1   
    53    25    51 1   
    54    26    52 1   
    55    27    28 1   
    56    27    53 1   
    57    29    54 1   
    58    30    31 1   
    59    30    55 1   
    60    30    56 1   
    61    31    57 1   
    62    31    58 1   
    63    32    33 1   
    64    32    59 1   
    65    32    60 1   
    66    33    61 1   
    67    33    62 1   
@<TRIPOS>SUBSTRUCTURE
     1 3RT         1 TEMP              0 ****  ****    0 ROOT
