@<TRIPOS>MOLECULE
3RT
   62    67     1     0     0
SMALL
bcc


@<TRIPOS>ATOM
      1 C1          -5.9330    -0.6060    -0.9120 c3         1 3RT      -0.030100
      2 C2          -2.8920    -2.0010     0.8060 cc         1 3RT       0.019700
      3 C3          -5.0890    -1.4950    -0.0570 cc         1 3RT       0.024400
      4 C4          -5.5790    -2.5490     0.6690 cd         1 3RT      -0.192000
      5 C5          -4.7370    -3.3330     1.4780 cd         1 3RT      -0.085000
      6 C6          -3.3930    -3.0730     1.5540 cc         1 3RT      -0.129000
      7 N1          -3.7560    -1.2560     0.0450 na         1 3RT       0.207000
      8 N2          -1.6620    -1.5110     0.6690 nd         1 3RT      -0.444300
      9 N3          -3.0820    -0.2830    -0.5880 nc         1 3RT      -0.677100
     10 O1           9.8100     0.7550     0.4910 os         1 3RT      -0.405600
     11 C7          -1.8370    -0.4870    -0.1750 cd         1 3RT       0.772200
     12 C8           0.5210     0.2350    -0.4970 ca         1 3RT       0.227600
     13 C9           1.2720     1.2580    -1.1410 ca         1 3RT      -0.234000
     14 C10          2.6430     1.2610    -1.1250 ca         1 3RT      -0.012000
     15 C11          3.3100     0.2330    -0.4520 ca         1 3RT      -0.297900
     16 C12          2.5610    -0.7680     0.1850 ca         1 3RT       0.027800
     17 C13          1.1610    -0.7890     0.1820 ca         1 3RT      -0.213000
     18 C14          4.6720    -0.1400    -0.2230 cc         1 3RT       0.586800
     19 C15          7.1060     0.1190    -0.3060 c6         1 3RT       0.216500
     20 O2          -7.4120     3.1730     0.5240 os         1 3RT      -0.402600
     21 C21         -5.7980     1.3600     0.7170 c6         1 3RT      -0.111900
     22 C22         -6.6270     2.4200     1.4240 c6         1 3RT       0.132400
     23 C23         -8.3040     2.3620    -0.2100 c6         1 3RT       0.132400
     24 C24         -7.5790     1.2950    -1.0130 c6         1 3RT      -0.111900
     25 C20         -6.7030     0.4400    -0.0990 c6         1 3RT      -0.054700
     26 N4          -0.8550     0.3460    -0.6150 nu         1 3RT      -0.693600
     27 N6           3.4550    -1.6200     0.7200 na         1 3RT      -0.023100
     28 N5           4.7380    -1.2410     0.4830 nd         1 3RT      -0.597100
     29 N7           5.7740     0.5010    -0.7280 nu         1 3RT      -0.792200
     30 C16          8.1360     0.6900    -1.2740 c6         1 3RT      -0.131900
     31 C17          9.5400     0.3200    -0.8230 c6         1 3RT       0.134400
     32 C18          8.9120     0.2000     1.4280 c6         1 3RT       0.134400
     33 C19          7.4660     0.5560     1.1150 c6         1 3RT      -0.131900
     34 H1          -5.3160    -0.1110    -1.6640 hc         1 3RT       0.072200
     35 H2          -6.6500    -1.2340    -1.4450 hc         1 3RT       0.072200
     36 H3          -6.6350    -2.7700     0.6080 ha         1 3RT       0.152000
     37 H4          -5.1600    -4.1540     2.0400 ha         1 3RT       0.145000
     38 H5          -2.7220    -3.6590     2.1640 ha         1 3RT       0.166000
     39 H6           0.7420     2.0490    -1.6570 ha         1 3RT       0.129000
     40 H7           3.1850     2.0530    -1.6280 ha         1 3RT       0.132000
     41 H8           0.6090    -1.5720     0.6790 ha         1 3RT       0.175000
     42 H9           7.1590    -0.9730    -0.3580 h1         1 3RT       0.077700
     43 H10         -5.0650     1.8370     0.0590 hc         1 3RT       0.054950
     44 H11         -5.2360     0.7990     1.4690 hc         1 3RT       0.054950
     45 H12         -5.9840     3.1260     1.9510 h1         1 3RT       0.043950
     46 H13         -7.2700     1.9350     2.1750 h1         1 3RT       0.043950
     47 H14         -9.0250     1.8790     0.4670 h1         1 3RT       0.043950
     48 H15         -8.8690     3.0250    -0.8690 h1         1 3RT       0.043950
     49 H16         -8.3150     0.6760    -1.5340 hc         1 3RT       0.054950
     50 H17         -6.9560     1.7680    -1.7800 hc         1 3RT       0.054950
     51 H18         -7.3620    -0.0930     0.5990 hc         1 3RT       0.044700
     52 H19         -1.1860     1.1040    -1.1920 hn         1 3RT       0.455800
     53 H20          3.2770    -2.4550     1.2490 hn         1 3RT       0.325700
     54 H21          5.6510     1.4960    -0.8510 hn         1 3RT       0.407800
     55 H22          7.9660     0.3050    -2.2830 hc         1 3RT       0.055700
     56 H23          8.0360     1.7800    -1.3210 hc         1 3RT       0.055700
     57 H24         10.2870     0.7810    -1.4720 h1         1 3RT       0.045450
     58 H25          9.6680    -0.7700    -0.8980 h1         1 3RT       0.045450
     59 H26          9.0220    -0.8950     1.4570 h1         1 3RT       0.045450
     60 H27          9.1990     0.5810     2.4090 h1         1 3RT       0.045450
     61 H28          7.3240     1.6380     1.2070 hc         1 3RT       0.055700
     62 H29          6.8110     0.0760     1.8450 hc         1 3RT       0.055700
@<TRIPOS>BOND
     1     1     3 1   
     2     1    25 1   
     3     1    34 1   
     4     1    35 1   
     5     2     6 1   
     6     2     7 1   
     7     2     8 2   
     8     3     4 2   
     9     3     7 1   
    10     4     5 1   
    11     4    36 1   
    12     5     6 2   
    13     5    37 1   
    14     6    38 1   
    15     7     9 1   
    16     8    11 1   
    17     9    11 2   
    18    10    31 1   
    19    10    32 1   
    20    11    26 1   
    21    12    13 ar  
    22    12    17 ar  
    23    12    26 1   
    24    13    14 ar  
    25    13    39 1   
    26    14    15 ar  
    27    14    40 1   
    28    15    16 ar  
    29    15    18 1   
    30    16    17 ar  
    31    16    27 1   
    32    17    41 1   
    33    18    28 2   
    34    18    29 1   
    35    19    29 1   
    36    19    30 1   
    37    19    33 1   
    38    19    42 1   
    39    20    22 1   
    40    20    23 1   
    41    21    22 1   
    42    21    25 1   
    43    21    43 1   
    44    21    44 1   
    45    22    45 1   
    46    22    46 1   
    47    23    24 1   
    48    23    47 1   
    49    23    48 1   
    50    24    25 1   
    51    24    49 1   
    52    24    50 1   
    53    25    51 1   
    54    26    52 1   
    55    27    28 1   
    56    27    53 1   
    57    29    54 1   
    58    30    31 1   
    59    30    55 1   
    60    30    56 1   
    61    31    57 1   
    62    31    58 1   
    63    32    33 1   
    64    32    59 1   
    65    32    60 1   
    66    33    61 1   
    67    33    62 1   
@<TRIPOS>SUBSTRUCTURE
     1 3RT         1 TEMP              0 ****  ****    0 ROOT
