@<TRIPOS>MOLECULE
3RU
   48    50     1     0     0
SMALL
No Charge or Current Charge


@<TRIPOS>ATOM
      1 C4          -5.1860    -1.7600     0.9220 ca         1 3RU      -0.073000
      2 C5          -4.3510    -0.7550     0.3980 ca         1 3RU      -0.125000
      3 C6          -4.7800     0.0430    -0.6950 ca         1 3RU       0.323000
      4 C8          -2.8020     1.2040    -0.6780 ca         1 3RU       0.615900
      5 C10         -3.0800    -0.5320     0.9570 ca         1 3RU      -0.030000
      6 C13          0.2020    -0.1020     0.2820 c3         1 3RU      -0.164400
      7 C17          3.8260     1.2270     0.3900 c3         1 3RU       0.100000
      8 C20          7.3620    -0.0910    -0.7550 c6         1 3RU      -0.072400
      9 C21          7.2060    -1.5750    -0.3410 c6         1 3RU      -0.074400
     10 C22          5.7690    -2.0800    -0.6150 c6         1 3RU      -0.072400
     11 C19          6.3120     0.8000    -0.0460 c6         1 3RU      -0.069900
     12 C23          4.7150    -1.1900     0.0900 c6         1 3RU      -0.069900
     13 C18          4.8620     0.3060    -0.3170 c6         1 3RU      -0.083700
     14 N15          2.4350     0.8910     0.0660 ns         1 3RU      -0.505900
     15 C14          1.5880     0.1620     0.8720 c          1 3RU       0.597100
     16 O16          1.9270    -0.2660     1.9660 o          1 3RU      -0.607100
     17 C9          -2.2740     0.4800     0.4090 ca         1 3RU      -0.178300
     18 C1          -6.4550    -1.9810     0.3640 ca         1 3RU      -0.129000
     19 C2          -6.8920    -1.1990    -0.7170 ca         1 3RU      -0.090000
     20 C3          -6.0570    -0.1950    -1.2400 ca         1 3RU      -0.103000
     21 N7          -3.9980     1.0150    -1.2190 nb         1 3RU      -0.760000
     22 N11         -2.1800     2.1990    -1.3180 nv         1 3RU      -1.065900
     23 H4          -4.8540    -2.3700     1.7600 ha         1 3RU       0.111000
     24 H10         -2.7280    -1.1320     1.7940 ha         1 3RU       0.118000
     25 H13          0.1940     0.1430    -0.7870 hc         1 3RU       0.064700
     26 H13A        -0.0410    -1.1620     0.4190 hc         1 3RU       0.064700
     27 H17          3.9770     1.1760     1.4770 h1         1 3RU       0.057700
     28 H17A         4.0050     2.2650     0.0800 h1         1 3RU       0.057700
     29 H20          8.3740     0.2590    -0.5100 hc         1 3RU       0.037950
     30 H20A         7.2530     0.0030    -1.8440 hc         1 3RU       0.037950
     31 H21          7.9300    -2.1930    -0.8900 hc         1 3RU       0.039700
     32 H21A         7.4430    -1.6890     0.7260 hc         1 3RU       0.039700
     33 H22          5.5800    -2.0890    -1.6970 hc         1 3RU       0.037950
     34 H22A         5.6680    -3.1180    -0.2720 hc         1 3RU       0.037950
     35 H19          6.5070     0.8070     1.0350 hc         1 3RU       0.042450
     36 H19A         6.4250     1.8380    -0.3890 hc         1 3RU       0.042450
     37 H23          3.7120    -1.5570    -0.1640 hc         1 3RU       0.042450
     38 H23A         4.8170    -1.2910     1.1800 hc         1 3RU       0.042450
     39 H18          4.6660     0.3940    -1.3960 hc         1 3RU       0.041700
     40 HN15         2.0640     1.1930    -0.8260 hn         1 3RU       0.309500
     41 H12         -0.8760     0.5080     2.0590 hc         1 3RU       0.059200
     42 H12A        -0.6230     1.8050     0.9160 hc         1 3RU       0.059200
     43 H1          -7.1000    -2.7580     0.7690 ha         1 3RU       0.114000
     44 H2          -7.8750    -1.3690    -1.1510 ha         1 3RU       0.113000
     45 H3          -6.4010     0.4060    -2.0760 ha         1 3RU       0.128000
     46 HN11        -2.7870     2.7430    -1.9170 hn         1 3RU       0.474500
     47 HN1A        -1.4710     2.7120    -0.8090 hn         1 3RU       0.474500
     48 C12         -0.8840     0.7420     0.9870 c3         1 3RU      -0.010100
@<TRIPOS>BOND
     1     1     2 ar  
     2     1    18 ar  
     3     1    23 1   
     4     2     3 ar  
     5     2     5 ar  
     6     3    20 ar  
     7     3    21 ar  
     8     4    17 ar  
     9     4    21 ar  
    10     4    22 1   
    11     5    17 ar  
    12     5    24 1   
    13     6    15 1   
    14     6    25 1   
    15     6    26 1   
    16     6    48 1   
    17     7    13 1   
    18     7    14 1   
    19     7    27 1   
    20     7    28 1   
    21     8     9 1   
    22     8    11 1   
    23     8    29 1   
    24     8    30 1   
    25     9    10 1   
    26     9    31 1   
    27     9    32 1   
    28    10    12 1   
    29    10    33 1   
    30    10    34 1   
    31    11    13 1   
    32    11    35 1   
    33    11    36 1   
    34    12    13 1   
    35    12    37 1   
    36    12    38 1   
    37    13    39 1   
    38    14    15 1   
    39    14    40 1   
    40    15    16 2   
    41    17    48 1   
    42    18    19 ar  
    43    18    43 1   
    44    19    20 ar  
    45    19    44 1   
    46    20    45 1   
    47    22    46 1   
    48    22    47 1   
    49    41    48 1   
    50    42    48 1   
@<TRIPOS>SUBSTRUCTURE
     1 3RU         1 TEMP              0 ****  ****    0 ROOT
