@<TRIPOS>MOLECULE
3RU
   48    50     1     0     0
SMALL
bcc


@<TRIPOS>ATOM
      1 C4          -4.7090    -2.2130     0.6390 ca         1 3RU      -0.091000
      2 C5          -4.0590    -1.0000     0.3420 ca         1 3RU      -0.190300
      3 C6          -4.6620    -0.0730    -0.5390 ca         1 3RU       0.453600
      4 C8          -2.9160     1.4100    -0.3310 ca         1 3RU       0.681200
      5 C10         -2.7990    -0.6420     0.8830 ca         1 3RU      -0.048000
      6 C13          0.2490     0.7110     0.0480 c3         1 3RU      -0.164400
      7 C17          3.9660     1.4540    -0.0660 c3         1 3RU       0.100000
      8 C20          7.1830    -0.6240    -0.6270 c6         1 3RU      -0.072400
      9 C21          6.7290    -1.9310     0.0150 c6         1 3RU      -0.074400
     10 C22          5.2640    -2.2120    -0.2980 c6         1 3RU      -0.072400
     11 C19          6.2850     0.5380    -0.2120 c6         1 3RU      -0.069900
     12 C23          4.3700    -1.0500     0.1260 c6         1 3RU      -0.069900
     13 C18          4.8130     0.2640    -0.5160 c6         1 3RU      -0.083700
     14 N15          2.5540     1.3030    -0.3320 ns         1 3RU      -0.572900
     15 C14          1.6380     0.9750     0.5950 c          1 3RU       0.664100
     16 O16          1.8950     0.8710     1.7870 o          1 3RU      -0.607100
     17 C9          -2.2030     0.5390     0.5660 ca         1 3RU      -0.243600
     18 C1          -5.9260    -2.5060     0.0780 ca         1 3RU      -0.147000
     19 C2          -6.5290    -1.5860    -0.8010 ca         1 3RU      -0.108000
     20 C3          -5.9150    -0.3970    -1.1050 ca         1 3RU      -0.186300
     21 N7          -4.0830     1.1090    -0.8490 nb         1 3RU      -0.760000
     22 N11         -2.3530     2.5900    -0.7090 nv         1 3RU      -0.955500
     23 H4          -4.2340    -2.9130     1.3170 ha         1 3RU       0.129000
     24 H10         -2.3020    -1.3290     1.5590 ha         1 3RU       0.136000
     25 H13          0.0590     1.3360    -0.8270 hc         1 3RU       0.064700
     26 H13A         0.2310    -0.3230    -0.3130 hc         1 3RU       0.064700
     27 H17          4.0950     1.6160     1.0050 h1         1 3RU       0.057700
     28 H17A         4.3180     2.3590    -0.5690 h1         1 3RU       0.057700
     29 H20          8.2200    -0.4080    -0.3610 hc         1 3RU       0.037950
     30 H20A         7.1570    -0.7280    -1.7170 hc         1 3RU       0.037950
     31 H21          7.3570    -2.7580    -0.3240 hc         1 3RU       0.039700
     32 H21A         6.8590    -1.8640     1.1010 hc         1 3RU       0.039700
     33 H22          5.1510    -2.3800    -1.3750 hc         1 3RU       0.037950
     34 H22A         4.9390    -3.1320     0.1940 hc         1 3RU       0.037950
     35 H19          6.3980     0.7170     0.8640 hc         1 3RU       0.042450
     36 H19A         6.6060     1.4570    -0.7130 hc         1 3RU       0.042450
     37 H23          3.3320    -1.2670    -0.1380 hc         1 3RU       0.042450
     38 H23A         4.4020    -0.9460     1.2170 hc         1 3RU       0.042450
     39 H18          4.7040     0.1600    -1.6050 hc         1 3RU       0.041700
     40 HN15         2.2580     1.3550    -1.2940 hn         1 3RU       0.309500
     41 H12         -0.6270     0.2580     1.9570 hc         1 3RU       0.059200
     42 H12A        -0.8310     1.9200     1.4800 hc         1 3RU       0.059200
     43 H1          -6.4240    -3.4390     0.3070 ha         1 3RU       0.132000
     44 H2          -7.4900    -1.8210    -1.2410 ha         1 3RU       0.131000
     45 H3          -6.3790     0.3100    -1.7800 ha         1 3RU       0.146000
     46 HN11        -2.9600     3.2440    -1.1750 hn         1 3RU       0.419300
     47 HN1A        -1.6640     3.0180    -0.1140 hn         1 3RU       0.419300
     48 C12         -0.8450     0.8940     1.0990 c3         1 3RU      -0.010100
@<TRIPOS>BOND
     1     1     2 ar  
     2     1    18 ar  
     3     1    23 1   
     4     2     3 ar  
     5     2     5 ar  
     6     3    20 ar  
     7     3    21 ar  
     8     4    17 ar  
     9     4    21 ar  
    10     4    22 1   
    11     5    17 ar  
    12     5    24 1   
    13     6    15 1   
    14     6    25 1   
    15     6    26 1   
    16     6    48 1   
    17     7    13 1   
    18     7    14 1   
    19     7    27 1   
    20     7    28 1   
    21     8     9 1   
    22     8    11 1   
    23     8    29 1   
    24     8    30 1   
    25     9    10 1   
    26     9    31 1   
    27     9    32 1   
    28    10    12 1   
    29    10    33 1   
    30    10    34 1   
    31    11    13 1   
    32    11    35 1   
    33    11    36 1   
    34    12    13 1   
    35    12    37 1   
    36    12    38 1   
    37    13    39 1   
    38    14    15 1   
    39    14    40 1   
    40    15    16 2   
    41    17    48 1   
    42    18    19 ar  
    43    18    43 1   
    44    19    20 ar  
    45    19    44 1   
    46    20    45 1   
    47    22    46 1   
    48    22    47 1   
    49    41    48 1   
    50    42    48 1   
@<TRIPOS>SUBSTRUCTURE
     1 3RU         1 TEMP              0 ****  ****    0 ROOT
