@<TRIPOS>MOLECULE
3RV
   40    43     1     0     0
SMALL
abcg2


@<TRIPOS>ATOM
      1 C1         -33.9650    20.9850    25.0720 ca         1 3RV       0.116000
      2 C2         -32.8190    21.2240    25.8060 ca         1 3RV      -0.145000
      3 C3         -31.6470    21.5280    25.1280 ca         1 3RV      -0.125000
      4 C4         -31.6330    21.5890    23.7310 ca         1 3RV       0.275000
      5 C5         -32.8160    21.3470    22.9960 ca         1 3RV      -0.154600
      6 C6         -33.9810    21.0430    23.6950 ca         1 3RV      -0.103000
      7 C7         -32.8950    21.3950    21.4670 c          1 3RV       0.717600
      8 O8         -31.8390    21.7200    20.8370 o          1 3RV      -0.686500
      9 F10        -35.1150    20.6810    25.7310 f          1 3RV      -0.206000
     10 N11        -30.4810    21.8870    22.9860 nu         1 3RV      -0.870200
     11 C13        -29.2260    22.0550    23.3750 cc         1 3RV       0.747100
     12 N14        -28.7530    22.0070    24.5950 nd         1 3RV      -0.767100
     13 C15        -27.3930    22.2000    24.6420 c          1 3RV       0.709700
     14 C16        -26.7810    22.4370    23.2850 cc         1 3RV      -0.107600
     15 S17        -28.0390    22.3620    22.0700 ss         1 3RV      -0.241800
     16 O18        -26.7370    22.1880    25.6760 o          1 3RV      -0.561100
     17 C19        -25.4710    22.7020    23.1430 cf         1 3RV      -0.102200
     18 C21        -24.6910    22.9620    21.9450 ca         1 3RV      -0.038800
     19 C22        -25.1240    22.5520    20.6930 ca         1 3RV      -0.088000
     20 C23        -24.3650    22.7760    19.5340 ca         1 3RV      -0.103000
     21 C24        -23.1540    23.4140    19.6140 ca         1 3RV      -0.104000
     22 C25        -22.6540    23.8510    20.8640 ca         1 3RV      -0.042000
     23 C26        -23.4210    23.6330    22.0510 ca         1 3RV      -0.018000
     24 O1         -33.9880    21.1170    20.9410 o          1 3RV      -0.686500
     25 C36        -22.8900    24.1060    23.2760 ca         1 3RV      -0.093000
     26 C37        -21.6710    24.7350    23.3290 ca         1 3RV      -0.116000
     27 C38        -20.9140    24.9380    22.1580 ca         1 3RV      -0.113000
     28 C39        -21.4010    24.5060    20.9520 ca         1 3RV      -0.103000
     29 H1         -32.8400    21.1740    26.8860 ha         1 3RV       0.115000
     30 H2         -30.7380    21.7170    25.6740 ha         1 3RV       0.150000
     31 H3         -34.8920    20.8530    23.1460 ha         1 3RV       0.151000
     32 H4         -30.7360    21.9130    21.9650 hn         1 3RV       0.594000
     33 H5         -24.9440    22.7240    24.0880 ha         1 3RV       0.198000
     34 H6         -26.0510    22.0060    20.5940 ha         1 3RV       0.131000
     35 H7         -24.7410    22.4330    18.5790 ha         1 3RV       0.116000
     36 H8         -22.5610    23.5910    18.7250 ha         1 3RV       0.107000
     37 H10        -23.4490    23.9820    24.1920 ha         1 3RV       0.123000
     38 H11        -21.2900    25.0840    24.2810 ha         1 3RV       0.109000
     39 H12        -19.9550    25.4370    22.2150 ha         1 3RV       0.106000
     40 H13        -20.8350    24.6600    20.0410 ha         1 3RV       0.106000
@<TRIPOS>BOND
     1     1     2 ar  
     2     1     6 ar  
     3     1     9 1   
     4     2     3 ar  
     5     2    29 1   
     6     3     4 ar  
     7     3    30 1   
     8     4     5 ar  
     9     4    10 1   
    10     5     6 ar  
    11     5     7 1   
    12     6    31 1   
    13     7     8 1   
    14     7    24 1   
    15    10    11 1   
    16    10    32 1   
    17    11    12 2   
    18    11    15 1   
    19    12    13 1   
    20    13    14 1   
    21    13    16 2   
    22    14    15 1   
    23    14    17 2   
    24    17    18 1   
    25    17    33 1   
    26    18    19 ar  
    27    18    23 ar  
    28    19    20 ar  
    29    19    34 1   
    30    20    21 ar  
    31    20    35 1   
    32    21    22 ar  
    33    21    36 1   
    34    22    23 ar  
    35    22    28 ar  
    36    23    25 ar  
    37    25    26 ar  
    38    25    37 1   
    39    26    27 ar  
    40    26    38 1   
    41    27    28 ar  
    42    27    39 1   
    43    28    40 1   
@<TRIPOS>SUBSTRUCTURE
     1 3RV         1 TEMP              0 ****  ****    0 ROOT
