@<TRIPOS>MOLECULE
3RV
   40    43     1     0     0
SMALL
No Charge or Current Charge


@<TRIPOS>ATOM
      1 C1         -33.9740    20.7690    25.1450 ca         1 3RV       0.116000
      2 C2         -32.9680    21.4450    25.8450 ca         1 3RV      -0.145000
      3 C3         -31.8690    21.9690    25.1440 ca         1 3RV      -0.125000
      4 C4         -31.7620    21.8180    23.7470 ca         1 3RV       0.275000
      5 C5         -32.7920    21.1510    23.0300 ca         1 3RV      -0.154600
      6 C6         -33.8930    20.6240    23.7530 ca         1 3RV      -0.103000
      7 C7         -32.7490    20.9810    21.5220 c          1 3RV       0.717600
      8 O8         -32.0450    21.7340    20.8600 o          1 3RV      -0.686500
      9 F10        -35.0330    20.2640    25.8130 f          1 3RV      -0.206000
     10 N11        -30.6690    22.3550    23.0700 nu         1 3RV      -0.870200
     11 C13        -29.3400    22.4080    23.3190 cc         1 3RV       0.747100
     12 N14        -28.8390    21.9980    24.4510 nd         1 3RV      -0.767100
     13 C15        -27.4610    22.0940    24.5310 c          1 3RV       0.709700
     14 C16        -26.8950    22.6360    23.2840 cc         1 3RV      -0.107600
     15 S17        -28.1730    22.9750    22.1270 ss         1 3RV      -0.241800
     16 O18        -26.8500    21.7570    25.5330 o          1 3RV      -0.561100
     17 C19        -25.5510    22.8490    23.0900 cf         1 3RV      -0.102200
     18 C21        -24.6980    23.1200    21.9010 ca         1 3RV      -0.038800
     19 C22        -25.1900    22.8320    20.6080 ca         1 3RV      -0.088000
     20 C23        -24.4010    23.0300    19.4660 ca         1 3RV      -0.103000
     21 C24        -23.0970    23.5200    19.5920 ca         1 3RV      -0.104000
     22 C25        -22.5790    23.8210    20.8620 ca         1 3RV      -0.042000
     23 C26        -23.3700    23.6310    22.0250 ca         1 3RV      -0.018000
     24 O1         -33.4360    20.1030    21.0210 o          1 3RV      -0.686500
     25 C36        -22.8110    23.9900    23.2790 ca         1 3RV      -0.093000
     26 C37        -21.5000    24.4890    23.3670 ca         1 3RV      -0.116000
     27 C38        -20.7250    24.6490    22.2110 ca         1 3RV      -0.113000
     28 C39        -21.2660    24.3200    20.9600 ca         1 3RV      -0.103000
     29 H1         -33.0400    21.5640    26.9230 ha         1 3RV       0.115000
     30 H2         -31.1000    22.5050    25.6940 ha         1 3RV       0.150000
     31 H3         -34.6960    20.1050    23.2350 ha         1 3RV       0.151000
     32 H4         -30.8390    22.4070    22.0600 hn         1 3RV       0.594000
     33 H5         -24.9770    22.5700    23.9730 ha         1 3RV       0.198000
     34 H6         -26.1780    22.4070    20.4720 ha         1 3RV       0.131000
     35 H7         -24.7990    22.7910    18.4820 ha         1 3RV       0.116000
     36 H8         -22.4910    23.6670    18.7000 ha         1 3RV       0.107000
     37 H10        -23.3770    23.9110    24.2010 ha         1 3RV       0.123000
     38 H11        -21.0870    24.7580    24.3370 ha         1 3RV       0.109000
     39 H12        -19.7110    25.0360    22.2820 ha         1 3RV       0.106000
     40 H13        -20.6630    24.4570    20.0650 ha         1 3RV       0.106000
@<TRIPOS>BOND
     1     1     2 ar  
     2     1     6 ar  
     3     1     9 1   
     4     2     3 ar  
     5     2    29 1   
     6     3     4 ar  
     7     3    30 1   
     8     4     5 ar  
     9     4    10 1   
    10     5     6 ar  
    11     5     7 1   
    12     6    31 1   
    13     7     8 1   
    14     7    24 1   
    15    10    11 1   
    16    10    32 1   
    17    11    12 2   
    18    11    15 1   
    19    12    13 1   
    20    13    14 1   
    21    13    16 2   
    22    14    15 1   
    23    14    17 2   
    24    17    18 1   
    25    17    33 1   
    26    18    19 ar  
    27    18    23 ar  
    28    19    20 ar  
    29    19    34 1   
    30    20    21 ar  
    31    20    35 1   
    32    21    22 ar  
    33    21    36 1   
    34    22    23 ar  
    35    22    28 ar  
    36    23    25 ar  
    37    25    26 ar  
    38    25    37 1   
    39    26    27 ar  
    40    26    38 1   
    41    27    28 ar  
    42    27    39 1   
    43    28    40 1   
@<TRIPOS>SUBSTRUCTURE
     1 3RV         1 TEMP              0 ****  ****    0 ROOT
