@<TRIPOS>MOLECULE
3RW
   52    55     1     0     0
SMALL
No Charge or Current Charge


@<TRIPOS>ATOM
      1 C1           4.4230     2.5800    -0.7760 ca         1 3RW       0.179900
      2 N1          -2.9740    -0.5460     0.3170 nu         1 3RW      -0.931100
      3 O1           1.5200    -2.9400     0.7310 o          1 3RW      -0.500100
      4 C2           2.4870     1.4710    -0.2670 ca         1 3RW       0.425900
      5 N2           3.0850     2.6280    -0.5820 nb         1 3RW      -0.296000
      6 C3           4.0970    -1.8360     0.2870 cc         1 3RW      -0.096100
      7 N3           5.2190     1.4960    -0.6400 nb         1 3RW      -0.231000
      8 C4           2.9170    -1.1180     0.1490 cd         1 3RW      -0.221400
      9 N4           5.1150    -0.9220    -0.0410 na         1 3RW      -0.175400
     10 C5           3.2280     0.2760    -0.1810 ca         1 3RW      -0.218800
     11 N5           1.1800     1.5980     0.0690 nv         1 3RW      -1.055900
     12 C6           4.5990     0.3400    -0.3260 ca         1 3RW       0.142500
     13 N6          -0.5490    -0.2790    -2.5130 nb         1 3RW      -0.606000
     14 C7           6.5660    -1.2030    -0.1000 c3         1 3RW       0.084300
     15 N7          -0.8070    -1.1160     0.2420 nb         1 3RW      -0.700000
     16 C8           7.1160    -1.6210     1.2800 c3         1 3RW      -0.108100
     17 N8          -8.4060     1.9590     0.5340 nb         1 3RW      -0.661000
     18 C9           1.5960    -1.8260     0.2150 c          1 3RW       0.515800
     19 C10          0.3830    -1.2000    -0.4440 ca         1 3RW       0.270500
     20 C11          0.4980    -0.7890    -1.8040 ca         1 3RW       0.265900
     21 C12         -1.7180    -0.1820    -1.8180 ca         1 3RW       0.240900
     22 C13         -1.8330    -0.6020    -0.4540 ca         1 3RW       0.560900
     23 C14          6.8960    -2.2440    -1.1900 c3         1 3RW      -0.108100
     24 C15         -6.7210     0.2070     0.6520 ca         1 3RW      -0.141300
     25 C16         -7.5940    -0.7030     0.0280 ca         1 3RW      -0.069000
     26 C17         -7.1720     1.5240     0.8830 ca         1 3RW       0.342900
     27 C18         -5.3170    -0.2200     1.0630 c3         1 3RW      -0.040100
     28 C19         -8.8750    -0.2540    -0.3340 ca         1 3RW      -0.161000
     29 C20         -4.3190    -0.1370    -0.1090 c3         1 3RW       0.228800
     30 C21         -9.2390     1.0760    -0.0640 ca         1 3RW       0.338900
     31 H1           4.9140     3.5170    -1.0340 h5         1 3RW       0.046100
     32 HN1         -2.8490    -0.9320     1.2510 hn         1 3RW       0.500000
     33 H3           4.2800    -2.8840     0.5080 h4         1 3RW       0.231000
     34 HN5          0.8240     2.5460     0.1510 hn         1 3RW       0.493500
     35 HN5A         0.7860     0.9330     0.7280 hn         1 3RW       0.493500
     36 H7           7.0830    -0.2750    -0.3800 h1         1 3RW       0.096700
     37 H8           6.6640    -2.5620     1.6160 hc         1 3RW       0.048533
     38 H8A          8.2030    -1.7590     1.2370 hc         1 3RW       0.048533
     39 H8B          6.9010    -0.8500     2.0290 hc         1 3RW       0.048533
     40 H11          1.4420    -0.8880    -2.3380 h4         1 3RW       0.044100
     41 H12         -2.5720     0.2280    -2.3560 h4         1 3RW       0.029100
     42 H14          6.5270    -1.9080    -2.1660 hc         1 3RW       0.048533
     43 H14A         7.9800    -2.3910    -1.2680 hc         1 3RW       0.048533
     44 H14B         6.4340    -3.2130    -0.9620 hc         1 3RW       0.048533
     45 H16         -7.2890    -1.7280    -0.1710 ha         1 3RW       0.119000
     46 H17         -6.5230     2.2580     1.3610 h4         1 3RW       0.019100
     47 H18         -4.9560     0.4100     1.8860 hc         1 3RW       0.059200
     48 H18A        -5.3370    -1.2480     1.4460 hc         1 3RW       0.059200
     49 H19         -9.5810    -0.9230    -0.8180 ha         1 3RW       0.126000
     50 H20         -4.2950     0.8940    -0.4860 h1         1 3RW       0.046200
     51 H20A        -4.6680    -0.7860    -0.9250 h1         1 3RW       0.046200
     52 H21        -10.2270     1.4470    -0.3360 h4         1 3RW       0.022100
@<TRIPOS>BOND
     1     1     5 ar  
     2     1     7 ar  
     3     1    31 1   
     4     2    22 1   
     5     2    29 1   
     6     2    32 1   
     7     3    18 2   
     8     4     5 ar  
     9     4    10 ar  
    10     4    11 1   
    11     6     8 2   
    12     6     9 1   
    13     6    33 1   
    14     7    12 ar  
    15     8    10 1   
    16     8    18 1   
    17     9    12 1   
    18     9    14 1   
    19    10    12 ar  
    20    11    34 1   
    21    11    35 1   
    22    13    20 ar  
    23    13    21 ar  
    24    14    16 1   
    25    14    23 1   
    26    14    36 1   
    27    15    19 ar  
    28    15    22 ar  
    29    16    37 1   
    30    16    38 1   
    31    16    39 1   
    32    17    26 ar  
    33    17    30 ar  
    34    18    19 1   
    35    19    20 ar  
    36    20    40 1   
    37    21    22 ar  
    38    21    41 1   
    39    23    42 1   
    40    23    43 1   
    41    23    44 1   
    42    24    25 ar  
    43    24    26 ar  
    44    24    27 1   
    45    25    28 ar  
    46    25    45 1   
    47    26    46 1   
    48    27    29 1   
    49    27    47 1   
    50    27    48 1   
    51    28    30 ar  
    52    28    49 1   
    53    29    50 1   
    54    29    51 1   
    55    30    52 1   
@<TRIPOS>SUBSTRUCTURE
     1 3RW         1 TEMP              0 ****  ****    0 ROOT
