@<TRIPOS>MOLECULE
3RW
   52    55     1     0     0
SMALL
bcc


@<TRIPOS>ATOM
      1 C1           4.8620     2.5340    -0.7590 ca         1 3RW       0.705900
      2 N1          -3.0090    -0.3880     0.6510 nu         1 3RW      -0.875900
      3 O1           1.4280    -2.3790     1.3270 o          1 3RW      -0.500100
      4 C2           2.7980     1.7860    -0.0830 ca         1 3RW       0.754200
      5 N2           3.5910     2.7890    -0.4690 nb         1 3RW      -0.822000
      6 C3           4.0090    -1.6430     0.2470 cc         1 3RW      -0.046100
      7 N3           5.4870     1.3770    -0.6870 nb         1 3RW      -0.757000
      8 C4           2.8820    -0.8550     0.2980 cd         1 3RW      -0.221400
      9 N4           5.0820    -0.9140    -0.1380 na         1 3RW      -0.146100
     10 C5           3.3150     0.4710    -0.0560 ca         1 3RW      -0.349400
     11 N5           1.5360     2.1030     0.2500 nv         1 3RW      -0.945500
     12 C6           4.6850     0.3790    -0.3240 ca         1 3RW       0.470800
     13 N6          -0.6410    -0.0030    -2.0550 nb         1 3RW      -0.606000
     14 C7           6.4360    -1.4280    -0.3500 c3         1 3RW       0.055000
     15 N7          -0.7670    -0.8570     0.5720 nb         1 3RW      -0.700000
     16 C8           7.0100    -1.9650     0.9530 c3         1 3RW      -0.108100
     17 N8          -8.4690     1.6050    -0.1410 nb         1 3RW      -0.661000
     18 C9           1.5710    -1.4190     0.5950 c          1 3RW       0.515800
     19 C10          0.3770    -0.8440    -0.1030 ca         1 3RW       0.270500
     20 C11          0.4550    -0.4100    -1.4150 ca         1 3RW       0.265900
     21 C12         -1.7780     0.0020    -1.4020 ca         1 3RW       0.240900
     22 C13         -1.8570    -0.4190    -0.0490 ca         1 3RW       0.560900
     23 C14          6.4460    -2.4700    -1.4600 c3         1 3RW      -0.108100
     24 C15         -6.7380     0.0800     0.5300 ca         1 3RW      -0.206600
     25 C16         -7.4870    -0.9820     0.0360 ca         1 3RW      -0.087000
     26 C17         -7.2890     1.3530     0.4110 ca         1 3RW       0.408200
     27 C18         -5.3800    -0.1230     1.1340 c3         1 3RW      -0.040100
     28 C19         -8.7220    -0.7340    -0.5400 ca         1 3RW      -0.244300
     29 C20         -4.3020    -0.1370     0.0570 c3         1 3RW       0.228800
     30 C21         -9.1690     0.5770    -0.6070 ca         1 3RW       0.404200
     31 H1           5.4540     3.3860    -1.0750 h5         1 3RW       0.046100
     32 HN1         -2.9860    -0.8660     1.5390 hn         1 3RW       0.444800
     33 H3           4.0870    -2.7050     0.4220 h4         1 3RW       0.181000
     34 HN5          1.3130     3.0790     0.3480 hn         1 3RW       0.438300
     35 HN5A         0.9680     1.4700     0.7840 hn         1 3RW       0.438300
     36 H7           7.0220    -0.5660    -0.6690 h1         1 3RW       0.096700
     37 H8           6.4560    -2.8400     1.2990 hc         1 3RW       0.048533
     38 H8A          8.0460    -2.2680     0.8030 hc         1 3RW       0.048533
     39 H8B          6.9880    -1.2090     1.7370 hc         1 3RW       0.048533
     40 H11          1.3860    -0.4100    -1.9680 h4         1 3RW       0.044100
     41 H12         -2.6580     0.3350    -1.9390 h4         1 3RW       0.029100
     42 H14          6.0030    -2.0780    -2.3760 hc         1 3RW       0.048533
     43 H14A         7.4720    -2.7620    -1.6800 hc         1 3RW       0.048533
     44 H14B         5.9010    -3.3700    -1.1710 hc         1 3RW       0.048533
     45 H16         -7.1090    -1.9960     0.1110 ha         1 3RW       0.137000
     46 H17         -6.7420     2.2110     0.7900 h4         1 3RW       0.019100
     47 H18         -5.1660     0.6700     1.8530 hc         1 3RW       0.059200
     48 H18A        -5.3590    -1.0690     1.6820 hc         1 3RW       0.059200
     49 H19         -9.3310    -1.5400    -0.9280 ha         1 3RW       0.144000
     50 H20         -4.2940     0.8310    -0.4520 h1         1 3RW       0.046200
     51 H20A        -4.5440    -0.8940    -0.6990 h1         1 3RW       0.046200
     52 H21        -10.1310     0.8060    -1.0520 h4         1 3RW       0.022100
@<TRIPOS>BOND
     1     1     5 ar  
     2     1     7 ar  
     3     1    31 1   
     4     2    22 1   
     5     2    29 1   
     6     2    32 1   
     7     3    18 2   
     8     4     5 ar  
     9     4    10 ar  
    10     4    11 1   
    11     6     8 2   
    12     6     9 1   
    13     6    33 1   
    14     7    12 ar  
    15     8    10 1   
    16     8    18 1   
    17     9    12 1   
    18     9    14 1   
    19    10    12 ar  
    20    11    34 1   
    21    11    35 1   
    22    13    20 ar  
    23    13    21 ar  
    24    14    16 1   
    25    14    23 1   
    26    14    36 1   
    27    15    19 ar  
    28    15    22 ar  
    29    16    37 1   
    30    16    38 1   
    31    16    39 1   
    32    17    26 ar  
    33    17    30 ar  
    34    18    19 1   
    35    19    20 ar  
    36    20    40 1   
    37    21    22 ar  
    38    21    41 1   
    39    23    42 1   
    40    23    43 1   
    41    23    44 1   
    42    24    25 ar  
    43    24    26 ar  
    44    24    27 1   
    45    25    28 ar  
    46    25    45 1   
    47    26    46 1   
    48    27    29 1   
    49    27    47 1   
    50    27    48 1   
    51    28    30 ar  
    52    28    49 1   
    53    29    50 1   
    54    29    51 1   
    55    30    52 1   
@<TRIPOS>SUBSTRUCTURE
     1 3RW         1 TEMP              0 ****  ****    0 ROOT
