@<TRIPOS>MOLECULE
3RX
   62    64     1     0     0
SMALL
No Charge or Current Charge


@<TRIPOS>ATOM
      1 CAA         -7.0640     1.9450     1.4530 c3         1 3RX      -0.056400
      2 CAB         -8.9950     2.2870    -0.1360 c3         1 3RX      -0.056400
      3 CAC         -3.4200    -1.7790    -1.6860 c3         1 3RX      -0.056900
      4 CAD         -6.9120     1.1580    -0.9680 c2         1 3RX      -0.225200
      5 CAE         -3.4550    -1.5940     0.8540 c2         1 3RX      -0.220200
      6 CAF         -5.4990     0.6030    -0.9320 c3         1 3RX      -0.034200
      7 CAG         -2.0770    -2.1480     1.1290 c3         1 3RX       0.198000
      8 CAH          0.3190    -1.4870     1.0340 c3         1 3RX       0.154800
      9 CAI          1.2840    -0.2970     0.7750 c3         1 3RX       0.157800
     10 CAJ         -5.4620    -0.8710    -0.4730 c3         1 3RX      -0.039200
     11 CAK          6.7130     0.4270    -1.3440 c6         1 3RX      -0.069400
     12 CAL          4.8340     2.0500    -0.8170 c6         1 3RX      -0.065400
     13 CAM          4.2970    -0.2580    -1.7280 c6         1 3RX      -0.065400
     14 CAN          6.1670     0.9960     1.0710 c6         1 3RX      -0.065400
     15 CAO          5.6330    -1.3120     0.1590 c6         1 3RX      -0.065400
     16 NAP         -1.0990    -1.0790     0.9010 n7         1 3RX      -0.862400
     17 NAQ          2.7020    -0.7090     0.9060 n7         1 3RX      -0.870400
     18 CAR         -7.5880     1.7460     0.0380 c2         1 3RX      -0.110400
     19 CAS         -4.0500    -1.4250    -0.3440 c2         1 3RX      -0.110400
     20 CAT          6.2430     1.5550    -0.3800 c6         1 3RX      -0.058200
     21 CAU          5.7060    -0.7590    -1.2940 c6         1 3RX      -0.058200
     22 CAV          3.8180     0.8700    -0.7620 c6         1 3RX      -0.056200
     23 CAW          5.1530    -0.1860     1.1290 c6         1 3RX      -0.056200
     24 CAX          3.7390     0.3330     0.7090 c6         1 3RX       0.184500
     25 HAA         -7.7360     1.4840     2.1860 hc         1 3RX       0.038867
     26 HAAA        -6.0740     1.5050     1.6080 hc         1 3RX       0.038867
     27 HAAB        -6.9900     3.0120     1.6970 hc         1 3RX       0.038867
     28 HAB         -9.0330     3.3630     0.0760 hc         1 3RX       0.038867
     29 HABA        -9.3640     2.1420    -1.1590 hc         1 3RX       0.038867
     30 HABB        -9.6980     1.7870     0.5400 hc         1 3RX       0.038867
     31 HAC         -2.4200    -2.2140    -1.5820 hc         1 3RX       0.039033
     32 HACA        -4.0330    -2.5100    -2.2270 hc         1 3RX       0.039033
     33 HACB        -3.3170    -0.8940    -2.3240 hc         1 3RX       0.039033
     34 HAD         -7.3840     1.0610    -1.9470 ha         1 3RX       0.163000
     35 HAE         -3.9850    -1.3160     1.7650 ha         1 3RX       0.177000
     36 HAF         -5.0500     0.6880    -1.9290 hc         1 3RX       0.045200
     37 HAFA        -4.8620     1.2000    -0.2690 hc         1 3RX       0.045200
     38 HAG         -2.0230    -2.5040     2.1670 h1         1 3RX       0.033200
     39 HAGA        -1.8820    -3.0090     0.4740 h1         1 3RX       0.033200
     40 HAH          0.5500    -2.2890     0.3190 h1         1 3RX       0.034700
     41 HAHA         0.5050    -1.8790     2.0430 h1         1 3RX       0.034700
     42 HAI          1.0890     0.0930    -0.2330 h1         1 3RX       0.034700
     43 HAIA         1.0560     0.5050     1.4910 h1         1 3RX       0.034700
     44 HAJ         -5.9750    -0.9350     0.4950 hc         1 3RX       0.045700
     45 HAJA        -6.0540    -1.4840    -1.1640 hc         1 3RX       0.045700
     46 HAKA         7.7190     0.0820    -1.0630 hc         1 3RX       0.038200
     47 HAL          4.5000     2.8670    -0.1630 hc         1 3RX       0.041575
     48 HALA         4.8770     2.4660    -1.8330 hc         1 3RX       0.041575
     49 HAM          4.3310     0.1190    -2.7600 hc         1 3RX       0.041575
     50 HAMA         3.5810    -1.0910    -1.7300 hc         1 3RX       0.041575
     51 HAN          7.1600     0.6590     1.4000 hc         1 3RX       0.041575
     52 HANA         5.8630     1.7890     1.7680 hc         1 3RX       0.041575
     53 HAO          4.9540    -2.1750     0.2030 hc         1 3RX       0.041575
     54 HAOA         6.6190    -1.6830     0.4710 hc         1 3RX       0.041575
     55 HNAP        -1.2450    -0.7370    -0.0550 hn         1 3RX       0.407000
     56 HNAQ         2.8230    -1.0940     1.8490 hn         1 3RX       0.409000
     57 HAT          6.9550     2.3910    -0.4160 hc         1 3RX       0.047200
     58 HAU          6.0400    -1.5550    -1.9750 hc         1 3RX       0.047200
     59 HAV          2.8360     1.2390    -1.0850 hc         1 3RX       0.045200
     60 HAW          5.1150    -0.5760     2.1550 hc         1 3RX       0.045200
     61 HAX          3.4820     1.1750     1.3710 h1         1 3RX       0.021700
     62 HAK          6.7940     0.8130    -2.3690 hc         1 3RX       0.038200
@<TRIPOS>BOND
     1     1    18 1   
     2     1    25 1   
     3     1    26 1   
     4     1    27 1   
     5     2    18 1   
     6     2    28 1   
     7     2    29 1   
     8     2    30 1   
     9     3    19 1   
    10     3    31 1   
    11     3    32 1   
    12     3    33 1   
    13     4     6 1   
    14     4    18 2   
    15     4    34 1   
    16     5     7 1   
    17     5    19 2   
    18     5    35 1   
    19     6    10 1   
    20     6    36 1   
    21     6    37 1   
    22     7    16 1   
    23     7    38 1   
    24     7    39 1   
    25     8     9 1   
    26     8    16 1   
    27     8    40 1   
    28     8    41 1   
    29     9    17 1   
    30     9    42 1   
    31     9    43 1   
    32    10    19 1   
    33    10    44 1   
    34    10    45 1   
    35    11    20 1   
    36    11    21 1   
    37    11    46 1   
    38    11    62 1   
    39    12    20 1   
    40    12    22 1   
    41    12    47 1   
    42    12    48 1   
    43    13    21 1   
    44    13    22 1   
    45    13    49 1   
    46    13    50 1   
    47    14    20 1   
    48    14    23 1   
    49    14    51 1   
    50    14    52 1   
    51    15    21 1   
    52    15    23 1   
    53    15    53 1   
    54    15    54 1   
    55    16    55 1   
    56    17    24 1   
    57    17    56 1   
    58    20    57 1   
    59    21    58 1   
    60    22    24 1   
    61    22    59 1   
    62    23    24 1   
    63    23    60 1   
    64    24    61 1   
@<TRIPOS>SUBSTRUCTURE
     1 3RX         1 TEMP              0 ****  ****    0 ROOT
