@<TRIPOS>MOLECULE
3RX
   62    64     1     0     0
SMALL
bcc


@<TRIPOS>ATOM
      1 CAA         -6.8110     2.8020     0.7650 c3         1 3RX      -0.056400
      2 CAB         -9.2100     2.0380     0.6260 c3         1 3RX      -0.056400
      3 CAC         -4.1770    -2.0550    -1.8760 c3         1 3RX      -0.056900
      4 CAD         -7.4380     0.6800    -0.4300 c2         1 3RX      -0.175200
      5 CAE         -3.2710    -1.5200     0.4090 c2         1 3RX      -0.170200
      6 CAF         -6.0720     0.2360    -0.8490 c3         1 3RX      -0.034200
      7 CAG         -1.8670    -2.0070     0.2260 c3         1 3RX       0.198000
      8 CAH          0.4570    -1.3550     0.3720 c3         1 3RX       0.154800
      9 CAI          1.4170    -0.1850     0.5050 c3         1 3RX       0.157800
     10 CAJ         -5.6290    -1.0130    -0.0700 c3         1 3RX      -0.039200
     11 CAK          7.0060     0.3380    -0.8580 c6         1 3RX      -0.069400
     12 CAL          5.1250     1.9810    -0.7230 c6         1 3RX      -0.065400
     13 CAM          4.7110    -0.3290    -1.5860 c6         1 3RX      -0.065400
     14 CAN          6.0910     1.0260     1.3630 c6         1 3RX      -0.065400
     15 CAO          5.6790    -1.2830     0.5060 c6         1 3RX      -0.065400
     16 NAP         -0.9230    -0.9100     0.3720 n7         1 3RX      -0.807200
     17 NAQ          2.7750    -0.6650     0.6570 n7         1 3RX      -0.815200
     18 CAR         -7.7770     1.7670     0.2680 c2         1 3RX      -0.110400
     19 CAS         -4.2750    -1.5370    -0.4710 c2         1 3RX      -0.110400
     20 CAT          6.4160     1.5000    -0.0550 c6         1 3RX      -0.058200
     21 CAU          5.9990    -0.8140    -0.9150 c6         1 3RX      -0.058200
     22 CAV          4.1160     0.8320    -0.7850 c6         1 3RX      -0.056200
     23 CAW          5.0800    -0.1220     1.3050 c6         1 3RX      -0.056200
     24 CAX          3.7880     0.3770     0.6450 c6         1 3RX       0.184500
     25 HAA         -6.8500     2.8640     1.8560 hc         1 3RX       0.038867
     26 HAAA        -5.7790     2.6100     0.4810 hc         1 3RX       0.038867
     27 HAAB        -7.0820     3.7920     0.3910 hc         1 3RX       0.038867
     28 HAB         -9.5470     2.9870     0.1990 hc         1 3RX       0.038867
     29 HABA        -9.8790     1.2530     0.2730 hc         1 3RX       0.038867
     30 HABB        -9.3320     2.1260     1.7090 hc         1 3RX       0.038867
     31 HAC         -3.2040    -2.4780    -2.1140 hc         1 3RX       0.039033
     32 HACA        -4.9300    -2.8270    -2.0530 hc         1 3RX       0.039033
     33 HACB        -4.3720    -1.2610    -2.6000 hc         1 3RX       0.039033
     34 HAD         -8.2390     0.0010    -0.7150 ha         1 3RX       0.113000
     35 HAE         -3.4750    -1.1080     1.3950 ha         1 3RX       0.127000
     36 HAF         -6.0900     0.0080    -1.9190 hc         1 3RX       0.045200
     37 HAFA        -5.3270     1.0230    -0.7170 hc         1 3RX       0.045200
     38 HAG         -1.6490    -2.7320     1.0180 h1         1 3RX       0.033200
     39 HAGA        -1.7450    -2.5510    -0.7200 h1         1 3RX       0.033200
     40 HAH          0.7270    -1.9350    -0.5250 h1         1 3RX       0.034700
     41 HAHA         0.5910    -2.0300     1.2250 h1         1 3RX       0.034700
     42 HAI          1.3560     0.4320    -0.3960 h1         1 3RX       0.034700
     43 HAIA         1.0930     0.4550     1.3400 h1         1 3RX       0.034700
     44 HAJ         -5.6310    -0.7770     0.9970 hc         1 3RX       0.045700
     45 HAJA        -6.3790    -1.7990    -0.2170 hc         1 3RX       0.045700
     46 HAKA         7.9410     0.0020    -0.3980 hc         1 3RX       0.038200
     47 HAL          4.7080     2.8240    -0.1610 hc         1 3RX       0.041575
     48 HALA         5.3350     2.3510    -1.7320 hc         1 3RX       0.041575
     49 HAM          4.9180    -0.0010    -2.6100 hc         1 3RX       0.041575
     50 HAMA         3.9880    -1.1450    -1.6530 hc         1 3RX       0.041575
     51 HAN          7.0020     0.6920     1.8700 hc         1 3RX       0.041575
     52 HANA         5.6880     1.8550     1.9540 hc         1 3RX       0.041575
     53 HAO          4.9880    -2.1300     0.4790 hc         1 3RX       0.041575
     54 HAOA         6.5900    -1.6350     1.0030 hc         1 3RX       0.041575
     55 HNAP        -1.0650    -0.2600    -0.3930 hn         1 3RX       0.351800
     56 HNAQ         2.8350    -1.1670     1.5360 hn         1 3RX       0.353800
     57 HAT          7.1370     2.3220    -0.0120 hc         1 3RX       0.047200
     58 HAU          6.4230    -1.6430    -1.4900 hc         1 3RX       0.047200
     59 HAV          3.2040     1.1850    -1.2770 hc         1 3RX       0.045200
     60 HAW          4.8510    -0.4530     2.3250 hc         1 3RX       0.045200
     61 HAX          3.4450     1.2610     1.2140 h1         1 3RX       0.021700
     62 HAK          7.2560     0.6700    -1.8710 hc         1 3RX       0.038200
@<TRIPOS>BOND
     1     1    18 1   
     2     1    25 1   
     3     1    26 1   
     4     1    27 1   
     5     2    18 1   
     6     2    28 1   
     7     2    29 1   
     8     2    30 1   
     9     3    19 1   
    10     3    31 1   
    11     3    32 1   
    12     3    33 1   
    13     4     6 1   
    14     4    18 2   
    15     4    34 1   
    16     5     7 1   
    17     5    19 2   
    18     5    35 1   
    19     6    10 1   
    20     6    36 1   
    21     6    37 1   
    22     7    16 1   
    23     7    38 1   
    24     7    39 1   
    25     8     9 1   
    26     8    16 1   
    27     8    40 1   
    28     8    41 1   
    29     9    17 1   
    30     9    42 1   
    31     9    43 1   
    32    10    19 1   
    33    10    44 1   
    34    10    45 1   
    35    11    20 1   
    36    11    21 1   
    37    11    46 1   
    38    11    62 1   
    39    12    20 1   
    40    12    22 1   
    41    12    47 1   
    42    12    48 1   
    43    13    21 1   
    44    13    22 1   
    45    13    49 1   
    46    13    50 1   
    47    14    20 1   
    48    14    23 1   
    49    14    51 1   
    50    14    52 1   
    51    15    21 1   
    52    15    23 1   
    53    15    53 1   
    54    15    54 1   
    55    16    55 1   
    56    17    24 1   
    57    17    56 1   
    58    20    57 1   
    59    21    58 1   
    60    22    24 1   
    61    22    59 1   
    62    23    24 1   
    63    23    60 1   
    64    24    61 1   
@<TRIPOS>SUBSTRUCTURE
     1 3RX         1 TEMP              0 ****  ****    0 ROOT
