@<TRIPOS>MOLECULE
3RY
   42    45     1     0     0
SMALL
No Charge or Current Charge


@<TRIPOS>ATOM
      1 O8           4.2510     0.8990    -3.4390 o          1 3RY      -0.682000
      2 C7           3.7320     0.9100    -2.3330 c          1 3RY       0.725600
      3 O1           2.7910     1.6420    -2.0470 o          1 3RY      -0.682000
      4 C5           4.2920    -0.0170    -1.2700 ca         1 3RY      -0.195600
      5 C4           3.5350    -0.4220    -0.1400 ca         1 3RY       0.308000
      6 C3           4.1230    -1.2680     0.8220 ca         1 3RY      -0.163000
      7 C2           5.4330    -1.7430     0.6630 ca         1 3RY      -0.099000
      8 C1           6.1760    -1.3640    -0.4610 ca         1 3RY      -0.166000
      9 C6           5.6130    -0.5070    -1.4180 ca         1 3RY      -0.061000
     10 N11          2.2400     0.0590     0.0360 nu         1 3RY      -0.933200
     11 C13          1.1080    -0.4170     0.6850 ce         1 3RY       0.877500
     12 N14          1.0870    -1.6560     1.0480 nf         1 3RY      -0.709100
     13 C15         -0.1700    -2.1810     1.3790 c          1 3RY       0.755700
     14 S17         -0.4920     0.4210     0.7330 sx         1 3RY       0.056400
     15 O18         -0.3550    -3.3510     1.6490 o          1 3RY      -0.597100
     16 C16         -1.2370    -1.1490     1.3390 ce         1 3RY      -0.857400
     17 C19         -2.7370    -1.4130     1.3660 c3         1 3RY       0.105100
     18 C21         -3.4960    -0.7930     0.1860 ca         1 3RY      -0.059300
     19 C22         -3.6730    -1.5880    -0.9660 ca         1 3RY      -0.106000
     20 C23         -4.3700    -1.0990    -2.0810 ca         1 3RY      -0.100000
     21 C24         -4.9010     0.1980    -2.0610 ca         1 3RY      -0.120000
     22 C25         -4.7310     1.0130    -0.9280 ca         1 3RY      -0.035000
     23 C26         -4.0250     0.5290     0.2050 ca         1 3RY      -0.035000
     24 C39         -5.2660     2.3150    -0.9320 ca         1 3RY      -0.101000
     25 C38         -5.1030     3.1510     0.1830 ca         1 3RY      -0.113000
     26 C37         -4.4010     2.6890     1.3050 ca         1 3RY      -0.117000
     27 C36         -3.8650     1.3900     1.3180 ca         1 3RY      -0.101000
     28 H2           3.5720    -1.5550     1.7120 ha         1 3RY       0.142000
     29 H3           5.8720    -2.3970     1.4130 ha         1 3RY       0.094000
     30 H4           7.1930    -1.7280    -0.5880 ha         1 3RY       0.094000
     31 H5           6.2140    -0.2170    -2.2780 ha         1 3RY       0.128000
     32 H6           2.0280     0.8340    -0.6020 hn         1 3RY       0.597000
     33 H7          -2.9170    -2.4960     1.3680 hc         1 3RY       0.044700
     34 H8          -3.1660    -1.0830     2.3190 hc         1 3RY       0.044700
     35 H9          -3.2650    -2.5960    -0.9960 ha         1 3RY       0.126000
     36 H10         -4.4990    -1.7260    -2.9600 ha         1 3RY       0.106000
     37 H11         -5.4410     0.5690    -2.9290 ha         1 3RY       0.104000
     38 H12         -5.8080     2.6820    -1.8010 ha         1 3RY       0.105000
     39 H13         -5.5170     4.1570     0.1750 ha         1 3RY       0.105000
     40 H14         -4.2690     3.3380     2.1680 ha         1 3RY       0.107000
     41 H15         -3.3180     1.0740     2.2000 ha         1 3RY       0.113000
     42 H16         -0.1520     0.8770     2.0090 hs         1 3RY       0.295000
@<TRIPOS>BOND
     1     1     2 1   
     2     2     3 1   
     3     2     4 1   
     4     4     5 ar  
     5     4     9 ar  
     6     5     6 ar  
     7     5    10 1   
     8     6     7 ar  
     9     6    28 1   
    10     7     8 ar  
    11     7    29 1   
    12     8     9 ar  
    13     8    30 1   
    14     9    31 1   
    15    10    11 1   
    16    10    32 1   
    17    11    12 2   
    18    11    14 1   
    19    12    13 1   
    20    13    15 2   
    21    13    16 1   
    22    14    16 2   
    23    14    42 1   
    24    16    17 1   
    25    17    18 1   
    26    17    33 1   
    27    17    34 1   
    28    18    19 ar  
    29    18    23 ar  
    30    19    20 ar  
    31    19    35 1   
    32    20    21 ar  
    33    20    36 1   
    34    21    22 ar  
    35    21    37 1   
    36    22    23 ar  
    37    22    24 ar  
    38    23    27 ar  
    39    24    25 ar  
    40    24    38 1   
    41    25    26 ar  
    42    25    39 1   
    43    26    27 ar  
    44    26    40 1   
    45    27    41 1   
@<TRIPOS>SUBSTRUCTURE
     1 3RY         1 TEMP              0 ****  ****    0 ROOT
