@<TRIPOS>MOLECULE
3RY
   42    45     1     0     0
SMALL
abcg2


@<TRIPOS>ATOM
      1 O8           4.6170     2.5100    -1.8150 o          1 3RY      -0.682000
      2 C7           3.7790     1.7780    -1.2840 c          1 3RY       0.725600
      3 O1           2.5840     2.1120    -1.0190 o          1 3RY      -0.682000
      4 C5           4.1970     0.3640    -0.9130 ca         1 3RY      -0.195600
      5 C4           3.3200    -0.5570    -0.3040 ca         1 3RY       0.308000
      6 C3           3.7570    -1.8430     0.0150 ca         1 3RY      -0.163000
      7 C2           5.0630    -2.2140    -0.2640 ca         1 3RY      -0.099000
      8 C1           5.9400    -1.3210    -0.8630 ca         1 3RY      -0.166000
      9 C6           5.4990    -0.0460    -1.1800 ca         1 3RY      -0.061000
     10 N11          2.0280    -0.0990    -0.0510 nu         1 3RY      -0.933200
     11 C13          1.0200    -0.7600     0.4880 ce         1 3RY       0.877500
     12 N14          0.8570    -1.9610     0.8480 nf         1 3RY      -0.709100
     13 C15         -0.4160    -2.2230     1.4370 c          1 3RY       0.755700
     14 S17         -0.4820     0.2810     0.8520 sx         1 3RY       0.056400
     15 O18         -0.7200    -3.3740     1.7410 o          1 3RY      -0.597100
     16 C16         -1.2360    -1.0770     1.5700 ce         1 3RY      -0.857400
     17 C19         -2.7180    -1.1190     1.7950 c3         1 3RY       0.105100
     18 C21         -3.5090    -0.8070     0.5480 ca         1 3RY      -0.059300
     19 C22         -3.8330    -1.8210    -0.3190 ca         1 3RY      -0.106000
     20 C23         -4.5080    -1.5730    -1.5290 ca         1 3RY      -0.100000
     21 C24         -4.8540    -0.2950    -1.8740 ca         1 3RY      -0.120000
     22 C25         -4.5400     0.7830    -1.0160 ca         1 3RY      -0.035000
     23 C26         -3.8680     0.5300     0.2130 ca         1 3RY      -0.035000
     24 C39         -4.8820     2.1130    -1.3590 ca         1 3RY      -0.101000
     25 C38         -4.5770     3.1550    -0.5280 ca         1 3RY      -0.113000
     26 C37         -3.9180     2.9100     0.6940 ca         1 3RY      -0.117000
     27 C36         -3.5750     1.6350     1.0530 ca         1 3RY      -0.101000
     28 H2           3.0790    -2.5450     0.4760 ha         1 3RY       0.142000
     29 H3           5.3910    -3.2140    -0.0090 ha         1 3RY       0.094000
     30 H4           6.9590    -1.6150    -1.0810 ha         1 3RY       0.094000
     31 H5           6.1760     0.6560    -1.6480 ha         1 3RY       0.128000
     32 H6           1.9600     0.9180    -0.3890 hn         1 3RY       0.597000
     33 H7          -2.9420    -2.1390     2.1090 hc         1 3RY       0.044700
     34 H8          -3.0340    -0.4860     2.6280 hc         1 3RY       0.044700
     35 H9          -3.5560    -2.8390    -0.0680 ha         1 3RY       0.126000
     36 H10         -4.7500    -2.4000    -2.1840 ha         1 3RY       0.106000
     37 H11         -5.3710    -0.0940    -2.8040 ha         1 3RY       0.104000
     38 H12         -5.3910     2.2960    -2.2980 ha         1 3RY       0.105000
     39 H13         -4.8400     4.1680    -0.8040 ha         1 3RY       0.105000
     40 H14         -3.6850     3.7370     1.3520 ha         1 3RY       0.107000
     41 H15         -3.0840     1.4750     2.0050 ha         1 3RY       0.113000
     42 H16          0.1460     0.9820     1.8340 hs         1 3RY       0.295000
@<TRIPOS>BOND
     1     1     2 1   
     2     2     3 1   
     3     2     4 1   
     4     4     5 ar  
     5     4     9 ar  
     6     5     6 ar  
     7     5    10 1   
     8     6     7 ar  
     9     6    28 1   
    10     7     8 ar  
    11     7    29 1   
    12     8     9 ar  
    13     8    30 1   
    14     9    31 1   
    15    10    11 1   
    16    10    32 1   
    17    11    12 2   
    18    11    14 1   
    19    12    13 1   
    20    13    15 2   
    21    13    16 1   
    22    14    16 2   
    23    14    42 1   
    24    16    17 1   
    25    17    18 1   
    26    17    33 1   
    27    17    34 1   
    28    18    19 ar  
    29    18    23 ar  
    30    19    20 ar  
    31    19    35 1   
    32    20    21 ar  
    33    20    36 1   
    34    21    22 ar  
    35    21    37 1   
    36    22    23 ar  
    37    22    24 ar  
    38    23    27 ar  
    39    24    25 ar  
    40    24    38 1   
    41    25    26 ar  
    42    25    39 1   
    43    26    27 ar  
    44    26    40 1   
    45    27    41 1   
@<TRIPOS>SUBSTRUCTURE
     1 3RY         1 TEMP              0 ****  ****    0 ROOT
