@<TRIPOS>MOLECULE
3RZ
   32    34     1     0     0
SMALL
abcg2


@<TRIPOS>ATOM
      1 C1          44.9990    11.6050    28.1830 c3         1 3RZ      -0.137400
      2 N2          47.0060    12.8950    28.5650 nb         1 3RZ      -0.302000
      3 C3          47.6750    13.8710    29.1720 ca         1 3RZ       0.423900
      4 N4          48.9590    14.0360    28.8290 nv         1 3RZ      -1.074900
      5 C5          47.0410    14.7120    30.1600 ca         1 3RZ      -0.194000
      6 C6          45.6730    14.4450    30.4160 ca         1 3RZ       0.097000
      7 C7          44.9800    15.2470    31.3740 ca         1 3RZ      -0.148600
      8 N8          45.0300    13.4340    29.7580 nb         1 3RZ      -0.273000
      9 C9          45.7110    12.7190    28.8890 ca         1 3RZ       0.217300
     10 C10         47.0290    16.5040    31.7670 ca         1 3RZ      -0.139000
     11 C11         45.6770    16.2530    32.0190 ca         1 3RZ      -0.021000
     12 C12         47.7070    15.7400    30.8460 ca         1 3RZ      -0.050000
     13 O14         43.0200    15.8610    32.5870 o          1 3RZ      -0.582100
     14 N15         42.8580    14.0910    31.1540 ns         1 3RZ      -0.479400
     15 C16         41.5340    13.7010    31.3090 cc         1 3RZ       0.392900
     16 C17         40.9360    12.6680    30.5450 cc         1 3RZ      -0.269000
     17 C18         39.6450    12.5950    31.0170 cd         1 3RZ      -0.146000
     18 N19         39.5330    13.5280    31.9830 na         1 3RZ      -0.027200
     19 N20         40.6780    14.2240    32.1860 nd         1 3RZ      -0.519800
     20 H1          45.0260    11.7720    27.1040 hc         1 3RZ       0.061700
     21 H1A         45.5060    10.6580    28.3770 hc         1 3RZ       0.061700
     22 H1B         43.9650    11.5370    28.5130 hc         1 3RZ       0.061700
     23 HN4         49.3540    13.4340    28.1250 hn         1 3RZ       0.504500
     24 HN4A        49.5360    14.7660    29.2070 hn         1 3RZ       0.504500
     25 H10         47.5380    17.2970    32.3000 ha         1 3RZ       0.124000
     26 H11         45.1440    16.8540    32.7420 ha         1 3RZ       0.149000
     27 H12         48.7540    15.9400    30.6630 ha         1 3RZ       0.106000
     28 HN15        43.4250    13.5590    30.4770 hn         1 3RZ       0.376500
     29 H17         41.3930    12.0770    29.7700 ha         1 3RZ       0.143000
     30 H18         38.8180    11.9620    30.7400 h4         1 3RZ       0.149000
     31 HN19        38.7200    13.7450    32.5350 hn         1 3RZ       0.372000
     32 C13         43.5270    15.1000    31.7640 c          1 3RZ       0.618700
@<TRIPOS>BOND
     1     1     9 1   
     2     1    20 1   
     3     1    21 1   
     4     1    22 1   
     5     2     3 ar  
     6     2     9 ar  
     7     3     4 1   
     8     3     5 ar  
     9     4    23 1   
    10     4    24 1   
    11     5     6 ar  
    12     5    12 ar  
    13     6     7 ar  
    14     6     8 ar  
    15     7    11 ar  
    16     7    32 1   
    17     8     9 ar  
    18    10    11 ar  
    19    10    12 ar  
    20    10    25 1   
    21    11    26 1   
    22    12    27 1   
    23    13    32 2   
    24    14    15 1   
    25    14    28 1   
    26    14    32 1   
    27    15    16 1   
    28    15    19 2   
    29    16    17 2   
    30    16    29 1   
    31    17    18 1   
    32    17    30 1   
    33    18    19 1   
    34    18    31 1   
@<TRIPOS>SUBSTRUCTURE
     1 3RZ         1 TEMP              0 ****  ****    0 ROOT
