@<TRIPOS>MOLECULE
3RZ
   32    34     1     0     0
SMALL
No Charge or Current Charge


@<TRIPOS>ATOM
      1 C1          45.0730    11.5110    28.2550 c3         1 3RZ      -0.137400
      2 N2          47.0870    12.8460    28.6100 nb         1 3RZ      -0.302000
      3 C3          47.7040    13.8560    29.2260 ca         1 3RZ       0.423900
      4 N4          49.0020    14.0110    28.8470 nv         1 3RZ      -1.074900
      5 C5          47.0550    14.6800    30.1740 ca         1 3RZ      -0.194000
      6 C6          45.6870    14.4090    30.4630 ca         1 3RZ       0.097000
      7 C7          44.9970    15.2250    31.4170 ca         1 3RZ      -0.148600
      8 N8          45.0890    13.3770    29.8230 nb         1 3RZ      -0.273000
      9 C9          45.8010    12.6520    28.9400 ca         1 3RZ       0.217300
     10 C10         47.0560    16.5230    31.7560 ca         1 3RZ      -0.139000
     11 C11         45.7110    16.2730    32.0490 ca         1 3RZ      -0.021000
     12 C12         47.7310    15.7340    30.8230 ca         1 3RZ      -0.050000
     13 O14         43.0500    15.7440    32.7170 o          1 3RZ      -0.582100
     14 N15         42.7780    14.1180    31.1560 ns         1 3RZ      -0.479400
     15 C16         41.4610    13.7580    31.3120 cc         1 3RZ       0.392900
     16 C17         40.8860    12.7590    30.5210 cc         1 3RZ      -0.269000
     17 C18         39.5870    12.6320    30.9070 cd         1 3RZ      -0.146000
     18 N19         39.4400    13.5770    31.9300 na         1 3RZ      -0.027200
     19 N20         40.6210    14.2810    32.1790 nd         1 3RZ      -0.519800
     20 H1          44.3340    11.8940    27.5410 hc         1 3RZ       0.061700
     21 H1A         45.7620    10.8590    27.7050 hc         1 3RZ       0.061700
     22 H1B         44.5420    10.8880    28.9850 hc         1 3RZ       0.061700
     23 HN4         49.3130    13.5010    28.0240 hn         1 3RZ       0.504500
     24 HN4A        49.4590    14.9010    29.0190 hn         1 3RZ       0.504500
     25 H10         47.5780    17.3350    32.2580 ha         1 3RZ       0.124000
     26 H11         45.2210    16.9140    32.7810 ha         1 3RZ       0.149000
     27 H12         48.7770    15.9470    30.6200 ha         1 3RZ       0.106000
     28 HN15        43.2930    13.6220    30.4450 hn         1 3RZ       0.376500
     29 H17         41.3970    12.1990    29.7460 ha         1 3RZ       0.143000
     30 H18         38.7880    11.9830    30.5620 h4         1 3RZ       0.149000
     31 HN19        38.5870    13.7630    32.4590 hn         1 3RZ       0.372000
     32 C13         43.5300    15.0580    31.8240 c          1 3RZ       0.618700
@<TRIPOS>BOND
     1     1     9 1   
     2     1    20 1   
     3     1    21 1   
     4     1    22 1   
     5     2     3 ar  
     6     2     9 ar  
     7     3     4 1   
     8     3     5 ar  
     9     4    23 1   
    10     4    24 1   
    11     5     6 ar  
    12     5    12 ar  
    13     6     7 ar  
    14     6     8 ar  
    15     7    11 ar  
    16     7    32 1   
    17     8     9 ar  
    18    10    11 ar  
    19    10    12 ar  
    20    10    25 1   
    21    11    26 1   
    22    12    27 1   
    23    13    32 2   
    24    14    15 1   
    25    14    28 1   
    26    14    32 1   
    27    15    16 1   
    28    15    19 2   
    29    16    17 2   
    30    16    29 1   
    31    17    18 1   
    32    17    30 1   
    33    18    19 1   
    34    18    31 1   
@<TRIPOS>SUBSTRUCTURE
     1 3RZ         1 TEMP              0 ****  ****    0 ROOT
