@<TRIPOS>MOLECULE
3S0
   46    47     1     0     0
SMALL
bcc


@<TRIPOS>ATOM
      1 OBD         -6.1550    -1.3510    -1.7520 o          1 3S0      -0.635000
      2 CBB         -5.2810    -1.5050    -0.9220 c          1 3S0       0.763100
      3 NBC         -5.2120    -2.5260    -0.0540 nt         1 3S0      -0.673000
      4 OBA         -4.2480    -0.6710    -0.7670 os         1 3S0      -0.409900
      5 CAZ         -4.1510     0.4310    -1.6680 c3         1 3S0       0.172400
      6 CAT         -2.9150     1.2270    -1.2730 c6         1 3S0      -0.143000
      7 CAS         -1.6940     0.3310    -1.2240 ce         1 3S0       0.383300
      8 CAW         -1.4770    -0.6360    -2.3930 c          1 3S0       0.851300
      9 OAX         -1.1050    -1.7860    -2.1330 o          1 3S0      -0.821800
     10 OAY         -1.6780    -0.1190    -3.5100 o          1 3S0      -0.821800
     11 NAR         -0.7880     0.3450    -0.3420 n2         1 3S0      -0.619900
     12 CAU         -3.1540     1.9700     0.0330 c6         1 3S0      -0.013300
     13 SAV         -1.6530     2.7950     0.6060 ss         1 3S0      -0.344200
     14 CB          -0.6710     1.2650     0.7470 c6         1 3S0       0.230600
     15 CA           0.8110     1.6610     0.8900 c3         1 3S0      -0.019300
     16 C            1.0090     2.4070     2.2320 c          1 3S0       0.940600
     17 OXT          0.9760     3.6500     2.1600 o          1 3S0      -0.826800
     18 O            1.1180     1.7030     3.2470 o          1 3S0      -0.826800
     19 N            1.5760     0.4420     0.7920 ns         1 3S0      -0.483900
     20 CAJ          2.9040     0.4250     0.8430 c          1 3S0       0.574800
     21 OAK          3.6190     1.3670     1.1430 o          1 3S0      -0.604100
     22 CAF          3.5210    -0.9130     0.4920 ce         1 3S0       0.277300
     23 NAG          3.5090    -1.4190    -0.6780 n2         1 3S0      -0.426200
     24 OAH          2.9190    -0.6060    -1.5930 os         1 3S0      -0.164300
     25 CAI          2.5920    -1.3260    -2.7680 c3         1 3S0       0.125700
     26 CAE          4.2270    -1.6310     1.5320 cc         1 3S0       0.248400
     27 CAD          5.0910    -2.6840     1.5160 cd         1 3S0      -0.264300
     28 OAA          4.0140    -1.2300     2.8030 os         1 3S0      -0.261800
     29 CAB          4.7410    -2.0260     3.6080 cc         1 3S0       0.232600
     30 CAC          5.4230    -2.9410     2.8750 cd         1 3S0      -0.306300
     31 HBC         -5.9710    -3.1830    -0.0050 hn         1 3S0       0.318500
     32 HKL         -4.4930    -2.5840     0.6460 hn         1 3S0       0.318500
     33 HBM         -4.0680     0.0770    -2.6950 h1         1 3S0       0.048700
     34 HAZ         -5.0380     1.0670    -1.5970 h1         1 3S0       0.048700
     35 H1          -2.7600     1.9620    -2.0690 hc         1 3S0       0.088700
     36 HBL         -3.9080     2.7450    -0.1100 h1         1 3S0       0.047200
     37 HAU         -3.5210     1.3020     0.8150 h1         1 3S0       0.047200
     38 HB          -0.9730     0.7400     1.6600 h2         1 3S0       0.087700
     39 HA           1.0650     2.3270     0.0570 h1         1 3S0       0.053700
     40 H            1.0950    -0.3150     0.3200 hn         1 3S0       0.339500
     41 HAK          1.7640    -2.0170    -2.5960 h1         1 3S0       0.043367
     42 HAI          2.2800    -0.5820    -3.4980 h1         1 3S0       0.043367
     43 HAJ          3.4540    -1.8710    -3.1550 h1         1 3S0       0.043367
     44 HAD          5.4490    -3.2050     0.6430 ha         1 3S0       0.156000
     45 HAB          4.6820    -1.8280     4.6650 h4         1 3S0       0.044100
     46 HAC          6.0850    -3.7010     3.2550 ha         1 3S0       0.136000
@<TRIPOS>BOND
     1     1     2 2   
     2     2     3 1   
     3     2     4 1   
     4     3    31 1   
     5     3    32 1   
     6     4     5 1   
     7     5     6 1   
     8     5    33 1   
     9     5    34 1   
    10     6     7 1   
    11     6    12 1   
    12     6    35 1   
    13     7     8 1   
    14     7    11 2   
    15     8     9 1   
    16     8    10 1   
    17    11    14 1   
    18    12    13 1   
    19    12    36 1   
    20    12    37 1   
    21    13    14 1   
    22    14    15 1   
    23    14    38 1   
    24    15    16 1   
    25    15    19 1   
    26    15    39 1   
    27    16    17 1   
    28    16    18 1   
    29    19    20 1   
    30    19    40 1   
    31    20    21 2   
    32    20    22 1   
    33    22    23 2   
    34    22    26 1   
    35    23    24 1   
    36    24    25 1   
    37    25    41 1   
    38    25    42 1   
    39    25    43 1   
    40    26    27 2   
    41    26    28 1   
    42    27    30 1   
    43    27    44 1   
    44    28    29 1   
    45    29    30 2   
    46    29    45 1   
    47    30    46 1   
@<TRIPOS>SUBSTRUCTURE
     1 3S0         1 TEMP              0 ****  ****    0 ROOT
