@<TRIPOS>MOLECULE
3S0
   46    47     1     0     0
SMALL
No Charge or Current Charge


@<TRIPOS>ATOM
      1 OBD         -4.6770    -1.2460    -3.5930 o          1 3S0      -0.586000
      2 CBB         -4.0280    -1.3400    -2.5670 c          1 3S0       0.647100
      3 NBC         -3.9090    -2.4760    -1.8690 nt         1 3S0      -0.606000
      4 OBA         -3.3270    -0.3460    -1.9610 os         1 3S0      -0.433100
      5 CAZ         -3.3400     0.9510    -2.5790 c3         1 3S0       0.195600
      6 CAT         -2.4980     1.9290    -1.7120 c6         1 3S0      -0.143000
      7 CAS         -1.0280     1.4150    -1.5840 ce         1 3S0       0.383300
      8 CAW         -0.1710     1.4350    -2.8850 c          1 3S0       0.640700
      9 OAX          0.9910     1.0310    -2.8620 o          1 3S0      -0.716500
     10 OAY         -0.6550     1.8740    -3.9250 o          1 3S0      -0.716500
     11 NAR         -0.4380     1.0950    -0.4500 n2         1 3S0      -0.619900
     12 CAU         -3.2430     2.2390    -0.3880 c6         1 3S0       0.034600
     13 SAV         -2.1120     2.7660     0.9430 ss         1 3S0      -0.440000
     14 CB          -1.0920     1.2480     0.8570 c6         1 3S0       0.278500
     15 CA          -0.0340     1.2450     2.0020 c3         1 3S0      -0.019300
     16 C           -0.7210     1.2340     3.3910 c          1 3S0       0.730000
     17 OXT         -0.4110     2.0970     4.2020 o          1 3S0      -0.721500
     18 O           -1.4520     0.2910     3.6660 o          1 3S0      -0.721500
     19 N            0.9170     0.1020     1.9240 ns         1 3S0      -0.416900
     20 CAJ          2.2240     0.1590     1.4650 c          1 3S0       0.507800
     21 OAK          2.7350     1.2350     1.1660 o          1 3S0      -0.604100
     22 CAF          2.9420    -1.1900     1.3960 ce         1 3S0       0.277300
     23 NAG          2.3460    -2.2740     1.8170 n2         1 3S0      -0.327700
     24 OAH          1.2350    -2.6580     1.0390 os         1 3S0      -0.286000
     25 CAI          0.6680    -3.8770     1.5490 c3         1 3S0       0.148900
     26 CAE          4.3400    -1.2810     0.9430 cc         1 3S0       0.138700
     27 CAD          5.1700    -2.3740     0.8660 cd         1 3S0      -0.181000
     28 OAA          5.0390    -0.1750     0.4980 os         1 3S0      -0.173000
     29 CAB          6.3040    -0.5930     0.1480 cc         1 3S0       0.122900
     30 CAC          6.4110    -1.9370     0.3640 cd         1 3S0      -0.223000
     31 HBC         -4.3750    -3.3100    -2.1920 hn         1 3S0       0.318500
     32 HKL         -3.3550    -2.4830    -1.0270 hn         1 3S0       0.318500
     33 HBM         -2.9310     0.8960    -3.5950 h1         1 3S0       0.048700
     34 HAZ         -4.3660     1.3350    -2.6550 h1         1 3S0       0.048700
     35 H1          -2.4560     2.8700    -2.2770 hc         1 3S0       0.088700
     36 HBL         -4.0010     3.0190    -0.5450 h1         1 3S0       0.047200
     37 HAU         -3.7590     1.3390    -0.0230 h1         1 3S0       0.047200
     38 HB          -1.7730     0.3960     1.0150 h2         1 3S0       0.087700
     39 HA           0.5350     2.1800     1.9300 h1         1 3S0       0.053700
     40 H            0.5690    -0.8280     2.1380 hn         1 3S0       0.339500
     41 HAK          0.3310    -3.7500     2.5860 h1         1 3S0       0.043367
     42 HAI         -0.1970    -4.1760     0.9440 h1         1 3S0       0.043367
     43 HAJ          1.4030    -4.6920     1.5190 h1         1 3S0       0.043367
     44 HAD          4.9080    -3.3910     1.1430 ha         1 3S0       0.138000
     45 HAB          7.0000     0.1450    -0.2260 h4         1 3S0       0.044100
     46 HAC          7.2900    -2.5460     0.1790 ha         1 3S0       0.118000
@<TRIPOS>BOND
     1     1     2 2   
     2     2     3 1   
     3     2     4 1   
     4     3    31 1   
     5     3    32 1   
     6     4     5 1   
     7     5     6 1   
     8     5    33 1   
     9     5    34 1   
    10     6     7 1   
    11     6    12 1   
    12     6    35 1   
    13     7     8 1   
    14     7    11 2   
    15     8     9 1   
    16     8    10 1   
    17    11    14 1   
    18    12    13 1   
    19    12    36 1   
    20    12    37 1   
    21    13    14 1   
    22    14    15 1   
    23    14    38 1   
    24    15    16 1   
    25    15    19 1   
    26    15    39 1   
    27    16    17 1   
    28    16    18 1   
    29    19    20 1   
    30    19    40 1   
    31    20    21 2   
    32    20    22 1   
    33    22    23 2   
    34    22    26 1   
    35    23    24 1   
    36    24    25 1   
    37    25    41 1   
    38    25    42 1   
    39    25    43 1   
    40    26    27 2   
    41    26    28 1   
    42    27    30 1   
    43    27    44 1   
    44    28    29 1   
    45    29    30 2   
    46    29    45 1   
    47    30    46 1   
@<TRIPOS>SUBSTRUCTURE
     1 3S0         1 TEMP              0 ****  ****    0 ROOT
