@<TRIPOS>MOLECULE
3S1
   32    34     1     0     0
SMALL
No Charge or Current Charge


@<TRIPOS>ATOM
      1 C5           3.7100    -2.0970     0.7180 ca         1 3S1      -0.109000
      2 C4           4.6640    -1.1470     0.3290 ca         1 3S1      -0.108000
      3 C6           2.3470    -1.7660     0.6890 ca         1 3S1      -0.100000
      4 C9          -0.0700     0.9010     1.0400 ca         1 3S1      -0.129000
      5 C10         -1.4490     1.1680     1.0710 ca         1 3S1      -0.047000
      6 C3           4.2540     0.1250    -0.1000 ca         1 3S1      -0.086000
      7 C16         -0.4700    -1.0090    -0.4010 ca         1 3S1      -0.114000
      8 C8           0.4450    -0.1850     0.2950 cp         1 3S1      -0.001000
      9 C7           1.9080    -0.4850     0.2720 cp         1 3S1      -0.044000
     10 C11         -2.3450     0.3440     0.3600 ca         1 3S1      -0.168600
     11 C15         -1.8520    -0.7510    -0.3780 ca         1 3S1       0.014200
     12 C2           2.8840     0.4690    -0.1490 ca         1 3S1      -0.068300
     13 C14         -2.7660    -1.6220    -1.1180 cc         1 3S1      -0.259200
     14 C13         -4.1200    -1.3470    -1.0790 cd         1 3S1      -0.041400
     15 C12         -3.8220     0.6100     0.3790 c          1 3S1       0.570600
     16 C1           2.4940     1.8630    -0.6590 c3         1 3S1       0.205900
     17 N1          -4.5890    -0.2670    -0.3490 ns         1 3S1      -0.385100
     18 O2          -4.3310     1.5370     0.9930 o          1 3S1      -0.555000
     19 O1           3.2500     2.2280    -1.8220 oh         1 3S1      -0.660000
     20 H5           4.0250    -3.0840     1.0480 ha         1 3S1       0.115000
     21 H4           5.7230    -1.3970     0.3560 ha         1 3S1       0.114000
     22 H6           1.6160    -2.5050     1.0080 ha         1 3S1       0.116000
     23 H10         -1.8180     2.0120     1.6500 ha         1 3S1       0.136000
     24 H3           5.0080     0.8480    -0.4040 ha         1 3S1       0.130000
     25 H16         -0.0930    -1.8540    -0.9720 ha         1 3S1       0.122000
     26 H14         -2.4030    -2.4710    -1.6920 ha         1 3S1       0.200000
     27 H13         -4.8850    -1.9280    -1.5920 h4         1 3S1       0.198000
     28 H1           1.4250     1.8870    -0.9060 h1         1 3S1       0.030700
     29 H1A          2.6610     2.5910     0.1460 h1         1 3S1       0.030700
     30 HO1          2.9390     3.1200    -2.0930 ho         1 3S1       0.446000
     31 H141        -5.5830    -0.0680    -0.3230 hn         1 3S1       0.327500
     32 H9           0.6080     1.5380     1.6040 ha         1 3S1       0.120000
@<TRIPOS>BOND
     1     1     2 ar  
     2     1     3 ar  
     3     1    20 1   
     4     2     6 ar  
     5     2    21 1   
     6     3     9 ar  
     7     3    22 1   
     8     4     5 ar  
     9     4     8 ar  
    10     4    32 1   
    11     5    10 ar  
    12     5    23 1   
    13     6    12 ar  
    14     6    24 1   
    15     7     8 ar  
    16     7    11 ar  
    17     7    25 1   
    18     8     9 1   
    19     9    12 ar  
    20    10    11 ar  
    21    10    15 1   
    22    11    13 1   
    23    12    16 1   
    24    13    14 2   
    25    13    26 1   
    26    14    17 1   
    27    14    27 1   
    28    15    17 1   
    29    15    18 2   
    30    16    19 1   
    31    16    28 1   
    32    16    29 1   
    33    17    31 1   
    34    19    30 1   
@<TRIPOS>SUBSTRUCTURE
     1 3S1         1 TEMP              0 ****  ****    0 ROOT
