@<TRIPOS>MOLECULE
3S1
   32    34     1     0     0
SMALL
bcc


@<TRIPOS>ATOM
      1 C5           3.6630    -2.0720     0.6950 ca         1 3S1      -0.127000
      2 C4           4.5990    -1.1340     0.2860 ca         1 3S1      -0.126000
      3 C6           2.3180    -1.7410     0.6750 ca         1 3S1      -0.118000
      4 C9          -0.0670     0.9160     0.9780 ca         1 3S1      -0.147000
      5 C10         -1.4180     1.1710     1.0050 ca         1 3S1      -0.065000
      6 C3           4.1840     0.1170    -0.1480 ca         1 3S1      -0.104000
      7 C16         -0.4450    -1.0240    -0.3880 ca         1 3S1      -0.132000
      8 C8           0.4380    -0.1890     0.2710 cp         1 3S1      -0.001000
      9 C7           1.8900    -0.4820     0.2540 cp         1 3S1      -0.044000
     10 C11         -2.3130     0.3330     0.3310 ca         1 3S1      -0.168600
     11 C15         -1.8270    -0.7830    -0.3730 ca         1 3S1       0.014200
     12 C2           2.8350     0.4610    -0.1760 ca         1 3S1      -0.068300
     13 C14         -2.7520    -1.6380    -1.0560 cc         1 3S1      -0.209200
     14 C13         -4.0640    -1.3470    -1.0060 cd         1 3S1       0.008600
     15 C12         -3.7460     0.6280     0.3690 c          1 3S1       0.713100
     16 C1           2.4180     1.8210    -0.6790 c3         1 3S1       0.182700
     17 N1          -4.5270    -0.2590    -0.3220 ns         1 3S1      -0.452100
     18 O2          -4.2400     1.5820     0.9570 o          1 3S1      -0.630500
     19 O1           3.3850     2.3070    -1.5770 oh         1 3S1      -0.597800
     20 H5           3.9750    -3.0510     1.0320 ha         1 3S1       0.133000
     21 H4           5.6540    -1.3750     0.2990 ha         1 3S1       0.132000
     22 H6           1.5810    -2.4650     1.0030 ha         1 3S1       0.134000
     23 H10         -1.7950     2.0230     1.5540 ha         1 3S1       0.154000
     24 H3           4.9260     0.8310    -0.4780 ha         1 3S1       0.148000
     25 H16         -0.0700    -1.8780    -0.9390 ha         1 3S1       0.140000
     26 H14         -2.4060    -2.5040    -1.6010 ha         1 3S1       0.150000
     27 H13         -4.8200    -1.9440    -1.4940 h4         1 3S1       0.148000
     28 H1           1.4320     1.7500    -1.1550 h1         1 3S1       0.030700
     29 H1A          2.3000     2.5020     0.1740 h1         1 3S1       0.030700
     30 HO1          3.1710     3.2230    -1.7750 ho         1 3S1       0.407000
     31 H141        -5.5220    -0.0840    -0.3190 hn         1 3S1       0.327500
     32 H9           0.6090     1.5610     1.5240 ha         1 3S1       0.138000
@<TRIPOS>BOND
     1     1     2 ar  
     2     1     3 ar  
     3     1    20 1   
     4     2     6 ar  
     5     2    21 1   
     6     3     9 ar  
     7     3    22 1   
     8     4     5 ar  
     9     4     8 ar  
    10     4    32 1   
    11     5    10 ar  
    12     5    23 1   
    13     6    12 ar  
    14     6    24 1   
    15     7     8 ar  
    16     7    11 ar  
    17     7    25 1   
    18     8     9 1   
    19     9    12 ar  
    20    10    11 ar  
    21    10    15 1   
    22    11    13 1   
    23    12    16 1   
    24    13    14 2   
    25    13    26 1   
    26    14    17 1   
    27    14    27 1   
    28    15    17 1   
    29    15    18 2   
    30    16    19 1   
    31    16    28 1   
    32    16    29 1   
    33    17    31 1   
    34    19    30 1   
@<TRIPOS>SUBSTRUCTURE
     1 3S1         1 TEMP              0 ****  ****    0 ROOT
