@<TRIPOS>MOLECULE
3S2
   42    42     1     0     0
SMALL
abcg2


@<TRIPOS>ATOM
      1 C4          -5.9430     0.2430    -0.0200 c3         1 3S2      -0.077400
      2 C5          -4.5550    -0.3830    -0.0560 c3         1 3S2      -0.094400
      3 C6          -7.0510    -0.7970    -0.0530 c3         1 3S2       0.155800
      4 C7          -3.4640     0.6720     0.0130 c3         1 3S2       0.118000
      5 C8           1.5940     1.8710    -0.7630 c          1 3S2       0.597900
      6 C10          1.3770     0.8360     0.3180 c5         1 3S2      -0.005300
      7 N12         -8.3610    -0.1770    -0.0250 n7         1 3S2      -0.858400
      8 C1          -9.4360    -1.1470    -0.0490 c3         1 3S2       0.146100
      9 C2           1.8130    -1.3590    -0.6090 c5         1 3S2      -0.128400
     10 C3           0.3420    -1.2960    -0.2330 c5         1 3S2       0.108000
     11 C9           2.4450    -0.2900     0.2820 c5         1 3S2       0.222500
     12 C11         -1.0280     0.7920     0.0840 c          1 3S2       0.651100
     13 N13         -2.1540     0.0540    -0.0320 ns         1 3S2      -0.524900
     14 N14          3.7530     0.1970    -0.0900 n7         1 3S2      -0.856300
     15 N15          0.1490     0.1120     0.0910 n          1 3S2      -0.434800
     16 O16          4.9760    -0.5050     1.9700 o          1 3S2      -0.704200
     17 O17          2.1600     2.9190    -0.5900 o          1 3S2      -0.504100
     18 O18         -1.0440     2.0210     0.1630 o          1 3S2      -0.655100
     19 O19          4.9760    -2.0670     0.0820 o          1 3S2      -0.704200
     20 O20          6.2220     0.0410    -0.0960 o          1 3S2      -0.704200
     21 S21          5.0870    -0.6630     0.5130 s6         1 3S2       1.351700
     22 H4          -6.0430     0.8510     0.8860 hc         1 3S2       0.049200
     23 H4A         -6.0650     0.9250    -0.8660 hc         1 3S2       0.049200
     24 H5          -4.4420    -1.0780     0.7830 hc         1 3S2       0.040700
     25 H5A         -4.4400    -0.9730    -0.9700 hc         1 3S2       0.040700
     26 H6          -6.9710    -1.3830    -0.9750 h1         1 3S2       0.027200
     27 H6A         -6.9050    -1.5120     0.7740 h1         1 3S2       0.027200
     28 H7          -3.5720     1.3670    -0.8230 h1         1 3S2       0.048200
     29 H7A         -3.5820     1.2600     0.9290 h1         1 3S2       0.048200
     30 H8           1.2190     1.5720    -1.7610 h4         1 3S2      -0.034800
     31 H10          1.3970     1.3390     1.2880 h1         1 3S2       0.095700
     32 HN12        -8.4390     0.3770     0.8200 hn         1 3S2       0.404000
     33 H1          -9.4300    -1.6830    -1.0000 h1         1 3S2       0.026700
     34 H1A         -9.3810    -1.8980     0.7510 h1         1 3S2       0.026700
     35 H1B        -10.3980    -0.6390     0.0340 h1         1 3S2       0.026700
     36 H2           2.2460    -2.3430    -0.4460 hc         1 3S2       0.067200
     37 H2A          1.9480    -1.0980    -1.6630 hc         1 3S2       0.067200
     38 H3          -0.3050    -1.6040    -1.0560 h1         1 3S2       0.032200
     39 H3A          0.1250    -1.9380     0.6260 h1         1 3S2       0.032200
     40 H9           2.5100    -0.6740     1.3030 h1         1 3S2       0.085700
     41 HN13        -2.1120    -0.9410     0.1170 hn         1 3S2       0.306500
     42 HN14         3.8520     0.3060    -1.0950 hn         1 3S2       0.432000
@<TRIPOS>BOND
     1     1     2 1   
     2     1     3 1   
     3     1    22 1   
     4     1    23 1   
     5     2     4 1   
     6     2    24 1   
     7     2    25 1   
     8     3     7 1   
     9     3    26 1   
    10     3    27 1   
    11     4    13 1   
    12     4    28 1   
    13     4    29 1   
    14     5     6 1   
    15     5    17 2   
    16     5    30 1   
    17     6    11 1   
    18     6    15 1   
    19     6    31 1   
    20     7     8 1   
    21     7    32 1   
    22     8    33 1   
    23     8    34 1   
    24     8    35 1   
    25     9    10 1   
    26     9    11 1   
    27     9    36 1   
    28     9    37 1   
    29    10    15 1   
    30    10    38 1   
    31    10    39 1   
    32    11    14 1   
    33    11    40 1   
    34    12    13 1   
    35    12    15 1   
    36    12    18 2   
    37    13    41 1   
    38    14    21 1   
    39    14    42 1   
    40    16    21 1   
    41    19    21 1   
    42    20    21 1   
@<TRIPOS>SUBSTRUCTURE
     1 3S2         1 TEMP              0 ****  ****    0 ROOT
