@<TRIPOS>MOLECULE
3S2
   42    42     1     0     0
SMALL
No Charge or Current Charge


@<TRIPOS>ATOM
      1 C4          -5.9880     0.2250     0.2300 c3         1 3S2      -0.077400
      2 C5          -4.5670    -0.3290    -0.0160 c3         1 3S2      -0.094400
      3 C6          -7.0950    -0.7940    -0.1100 c3         1 3S2       0.155800
      4 C7          -3.4600     0.6880     0.3220 c3         1 3S2       0.118000
      5 C8           1.9780     1.7290    -0.8660 c          1 3S2       0.597900
      6 C10          1.5770     0.6770     0.2020 c5         1 3S2      -0.005300
      7 N12         -8.4240    -0.2070     0.1390 n7         1 3S2      -0.858400
      8 C1          -9.5650    -1.0900    -0.1680 c3         1 3S2       0.146100
      9 C2           1.7180    -1.4290    -0.9710 c5         1 3S2      -0.128400
     10 C3           0.2450    -1.2890    -0.5070 c5         1 3S2       0.108000
     11 C9           2.4690    -0.6070     0.1050 c5         1 3S2       0.222500
     12 C11         -0.9590     0.8140     0.2870 c          1 3S2       0.651100
     13 N13         -2.1300     0.1340     0.0790 ns         1 3S2      -0.524900
     14 N14          3.8250    -0.3170    -0.4230 n7         1 3S2      -0.856300
     15 N15          0.2140     0.1040    -0.0080 n          1 3S2      -0.434800
     16 O16          4.2900     0.9660     1.6110 o          1 3S2      -0.704200
     17 O17          2.1490     2.9290    -0.6660 o          1 3S2      -0.504100
     18 O18         -0.9360     1.9610     0.7030 o          1 3S2      -0.655100
     19 O19          5.1140    -1.3590     1.3190 o          1 3S2      -0.704200
     20 O20          6.0680     0.4840    -0.0400 o          1 3S2      -0.704200
     21 S21          4.9460    -0.0220     0.7520 s6         1 3S2       1.351700
     22 H4          -6.0800     0.5230     1.2810 hc         1 3S2       0.049200
     23 H4A         -6.1310     1.1280    -0.3770 hc         1 3S2       0.049200
     24 H5          -4.4220    -1.2320     0.5900 hc         1 3S2       0.040700
     25 H5A         -4.4720    -0.6270    -1.0680 hc         1 3S2       0.040700
     26 H6          -7.0000    -1.0870    -1.1650 h1         1 3S2       0.027200
     27 H6A         -6.9540    -1.6950     0.5030 h1         1 3S2       0.027200
     28 H7          -3.5870     1.5890    -0.2940 h1         1 3S2       0.048200
     29 H7A         -3.5350     0.9780     1.3780 h1         1 3S2       0.048200
     30 H8           2.0810     1.3270    -1.8990 h4         1 3S2      -0.034800
     31 H10          1.6720     1.1520     1.1860 h1         1 3S2       0.095700
     32 HN12        -8.4780     0.0500     1.1340 hn         1 3S2       0.404000
     33 H1          -9.5580    -1.3850    -1.2250 h1         1 3S2       0.026700
     34 H1A         -9.5310    -2.0010     0.4450 h1         1 3S2       0.026700
     35 H1B        -10.5150    -0.5770     0.0360 h1         1 3S2       0.026700
     36 H2           2.0400    -2.4750    -1.0060 hc         1 3S2       0.067200
     37 H2A          1.8500    -1.0140    -1.9780 hc         1 3S2       0.067200
     38 H3          -0.4560    -1.4550    -1.3360 h1         1 3S2       0.032200
     39 H3A          0.0080    -1.9930     0.3030 h1         1 3S2       0.032200
     40 H9           2.4820    -1.1590     1.0590 h1         1 3S2       0.085700
     41 HN13        -2.0520    -0.8130    -0.2620 hn         1 3S2       0.306500
     42 HN14         4.2390    -1.1930    -0.7250 hn         1 3S2       0.432000
@<TRIPOS>BOND
     1     1     2 1   
     2     1     3 1   
     3     1    22 1   
     4     1    23 1   
     5     2     4 1   
     6     2    24 1   
     7     2    25 1   
     8     3     7 1   
     9     3    26 1   
    10     3    27 1   
    11     4    13 1   
    12     4    28 1   
    13     4    29 1   
    14     5     6 1   
    15     5    17 2   
    16     5    30 1   
    17     6    11 1   
    18     6    15 1   
    19     6    31 1   
    20     7     8 1   
    21     7    32 1   
    22     8    33 1   
    23     8    34 1   
    24     8    35 1   
    25     9    10 1   
    26     9    11 1   
    27     9    36 1   
    28     9    37 1   
    29    10    15 1   
    30    10    38 1   
    31    10    39 1   
    32    11    14 1   
    33    11    40 1   
    34    12    13 1   
    35    12    15 1   
    36    12    18 2   
    37    13    41 1   
    38    14    21 1   
    39    14    42 1   
    40    16    21 1   
    41    19    21 1   
    42    20    21 1   
@<TRIPOS>SUBSTRUCTURE
     1 3S2         1 TEMP              0 ****  ****    0 ROOT
