@<TRIPOS>MOLECULE
3S3
   43    44     1     0     0
SMALL
No Charge or Current Charge


@<TRIPOS>ATOM
      1 OAK          1.7310    -2.7750     1.1710 o          1 3S3      -0.621100
      2 CAI          1.7490    -1.9540     0.2620 c          1 3S3       0.575100
      3 CAG          3.0820    -1.4530    -0.3870 c3         1 3S3       0.046600
      4 CAF          3.3510     0.0150    -0.1010 ca         1 3S3      -0.153300
      5 CAA          3.6700     0.8840    -1.1620 ca         1 3S3      -0.084000
      6 CAB          3.9290     2.2430    -0.9120 ca         1 3S3      -0.096500
      7 CAC          3.8710     2.7410     0.4010 ca         1 3S3      -0.095000
      8 CAD          3.5540     1.8780     1.4640 ca         1 3S3      -0.096500
      9 CAE          3.2960     0.5190     1.2150 ca         1 3S3      -0.084000
     10 NAH          4.3060    -2.2200     0.0890 nz         1 3S3      -0.951000
     11 N            0.6020    -1.4060    -0.2690 ns         1 3S3      -0.384900
     12 CA          -0.7820    -1.6950     0.1940 c3         1 3S3      -0.033300
     13 C           -1.1340    -3.1870    -0.0430 c          1 3S3       0.728000
     14 O           -1.0830    -3.6200    -1.1880 o          1 3S3      -0.706500
     15 OXT         -1.3920    -3.8910     0.9260 o          1 3S3      -0.706500
     16 CB          -1.8400    -0.7720    -0.4790 c6         1 3S3       0.272500
     17 NAQ         -1.3040     0.6070    -0.5650 n2         1 3S3      -0.651900
     18 SAU         -3.4580    -0.9860     0.3630 ss         1 3S3      -0.437000
     19 CAT         -4.2770     0.4560    -0.4000 c6         1 3S3       0.042600
     20 CAS         -3.5210     1.7440    -0.0370 c6         1 3S3      -0.146000
     21 CAY         -3.6740     2.0940     1.4730 c3         1 3S3      -0.069100
     22 CAR         -2.0150     1.7100    -0.4220 ce         1 3S3       0.382300
     23 CAV         -1.3440     3.0840    -0.7290 c          1 3S3       0.635700
     24 OAW         -0.1670     3.1260    -1.0810 o          1 3S3      -0.716500
     25 OAX         -2.0010     4.1180    -0.6290 o          1 3S3      -0.716500
     26 HAG          2.9690    -1.6140    -1.4650 hx         1 3S3       0.112700
     27 HAA          3.7200     0.5090    -2.1830 ha         1 3S3       0.136500
     28 HAB          4.1740     2.9100    -1.7360 ha         1 3S3       0.130500
     29 HAC          4.0700     3.7930     0.5940 ha         1 3S3       0.115000
     30 HAD          3.5100     2.2630     2.4800 ha         1 3S3       0.130500
     31 HAE          3.0540    -0.1380     2.0480 ha         1 3S3       0.136500
     32 HBP          4.2520    -3.2310    -0.1090 hn         1 3S3       0.502333
     33 HAH          5.1850    -1.8890    -0.3350 hn         1 3S3       0.502333
     34 HBO          4.4400    -2.1530     1.1080 hn         1 3S3       0.502333
     35 H            0.7220    -0.6780    -0.9650 hn         1 3S3       0.352500
     36 HA          -0.8150    -1.5100     1.2750 h1         1 3S3       0.066700
     37 HB          -1.9940    -1.1300    -1.5090 h2         1 3S3       0.092700
     38 HBL         -4.2840     0.3120    -1.4900 h1         1 3S3       0.052700
     39 HAT         -5.3180     0.5020    -0.0490 h1         1 3S3       0.052700
     40 HAS         -4.0060     2.5630    -0.5850 hc         1 3S3       0.080700
     41 HBN         -3.1770     1.3550     2.1130 hc         1 3S3       0.032700
     42 HBM         -3.2360     3.0720     1.7020 hc         1 3S3       0.032700
     43 HAY         -4.7300     2.1320     1.7660 hc         1 3S3       0.032700
@<TRIPOS>BOND
     1     1     2 2   
     2     2     3 1   
     3     2    11 1   
     4     3     4 1   
     5     3    10 1   
     6     3    26 1   
     7     4     5 ar  
     8     4     9 ar  
     9     5     6 ar  
    10     5    27 1   
    11     6     7 ar  
    12     6    28 1   
    13     7     8 ar  
    14     7    29 1   
    15     8     9 ar  
    16     8    30 1   
    17     9    31 1   
    18    10    32 1   
    19    10    33 1   
    20    10    34 1   
    21    11    12 1   
    22    11    35 1   
    23    12    13 1   
    24    12    16 1   
    25    12    36 1   
    26    13    14 1   
    27    13    15 1   
    28    16    17 1   
    29    16    18 1   
    30    16    37 1   
    31    17    22 2   
    32    18    19 1   
    33    19    20 1   
    34    19    38 1   
    35    19    39 1   
    36    20    21 1   
    37    20    22 1   
    38    20    40 1   
    39    21    41 1   
    40    21    42 1   
    41    21    43 1   
    42    22    23 1   
    43    23    24 1   
    44    23    25 1   
@<TRIPOS>SUBSTRUCTURE
     1 3S3         1 TEMP              0 ****  ****    0 ROOT
