@<TRIPOS>MOLECULE
3S3
   43    44     1     0     0
SMALL
bcc


@<TRIPOS>ATOM
      1 OAK          1.9270    -2.5550     1.0280 o          1 3S3      -0.621100
      2 CAI          1.7080    -1.7920     0.1000 c          1 3S3       0.642100
      3 CAG          2.8820    -1.1660    -0.6620 c3         1 3S3       0.074800
      4 CAF          3.2670     0.1130     0.0390 ca         1 3S3      -0.153300
      5 CAA          2.6370     1.2920    -0.3480 ca         1 3S3      -0.102000
      6 CAB          2.9030     2.4760     0.3210 ca         1 3S3      -0.114500
      7 CAC          3.8040     2.4950     1.3780 ca         1 3S3      -0.113000
      8 CAD          4.4280     1.3190     1.7700 ca         1 3S3      -0.114500
      9 CAE          4.1530     0.1280     1.1110 ca         1 3S3      -0.102000
     10 NAH          3.9850    -2.1520    -0.6780 nz         1 3S3      -0.813600
     11 N            0.5220    -1.3580    -0.2990 ns         1 3S3      -0.451900
     12 CA          -0.6900    -1.5480     0.4650 c3         1 3S3      -0.033300
     13 C           -1.0250    -3.0380     0.7280 c          1 3S3       0.938600
     14 O           -0.7900    -3.8290    -0.1990 o          1 3S3      -0.811800
     15 OXT         -1.5590    -3.2760     1.8260 o          1 3S3      -0.811800
     16 CB          -1.8330    -0.9170    -0.3540 c6         1 3S3       0.224600
     17 NAQ         -1.3710     0.3110    -0.9170 n2         1 3S3      -0.651900
     18 SAU         -3.3150    -0.8460     0.7100 ss         1 3S3      -0.341200
     19 CAT         -4.1790     0.4030    -0.2780 c6         1 3S3      -0.005300
     20 CAS         -3.3640     1.6810    -0.4010 c6         1 3S3      -0.146000
     21 CAY         -3.2850     2.4470     0.9190 c3         1 3S3      -0.069100
     22 CAR         -1.9820     1.4170    -0.9450 ce         1 3S3       0.382300
     23 CAV         -1.2460     2.5990    -1.6220 c          1 3S3       0.846300
     24 OAW         -0.0700     2.4100    -1.9680 o          1 3S3      -0.821800
     25 OAX         -1.9190     3.6370    -1.7640 o          1 3S3      -0.821800
     26 HAG          2.6260    -0.9670    -1.7020 hx         1 3S3       0.112700
     27 HAA          1.9170     1.2980    -1.1580 ha         1 3S3       0.154500
     28 HAB          2.4010     3.3840     0.0130 ha         1 3S3       0.148500
     29 HAC          4.0150     3.4200     1.8970 ha         1 3S3       0.133000
     30 HAD          5.1260     1.3220     2.5960 ha         1 3S3       0.148500
     31 HAE          4.6450    -0.7750     1.4520 ha         1 3S3       0.154500
     32 HBP          3.7990    -2.9010    -1.3470 hn         1 3S3       0.447133
     33 HAH          4.8760    -1.7320    -0.9460 hn         1 3S3       0.447133
     34 HBO          4.1000    -2.6020     0.2340 hn         1 3S3       0.447133
     35 H            0.4610    -0.6200    -0.9940 hn         1 3S3       0.352500
     36 HA          -0.6080    -1.0090     1.4150 h1         1 3S3       0.066700
     37 HB          -2.0460    -1.5810    -1.2000 h2         1 3S3       0.092700
     38 HBL         -4.4060    -0.0100    -1.2640 h1         1 3S3       0.052700
     39 HAT         -5.1290     0.5960     0.2200 h1         1 3S3       0.052700
     40 HAS         -3.8690     2.3230    -1.1270 hc         1 3S3       0.080700
     41 HBN         -2.8200     1.8420     1.6980 hc         1 3S3       0.032700
     42 HBM         -2.7080     3.3630     0.8060 hc         1 3S3       0.032700
     43 HAY         -4.2850     2.7230     1.2580 hc         1 3S3       0.032700
@<TRIPOS>BOND
     1     1     2 2   
     2     2     3 1   
     3     2    11 1   
     4     3     4 1   
     5     3    10 1   
     6     3    26 1   
     7     4     5 ar  
     8     4     9 ar  
     9     5     6 ar  
    10     5    27 1   
    11     6     7 ar  
    12     6    28 1   
    13     7     8 ar  
    14     7    29 1   
    15     8     9 ar  
    16     8    30 1   
    17     9    31 1   
    18    10    32 1   
    19    10    33 1   
    20    10    34 1   
    21    11    12 1   
    22    11    35 1   
    23    12    13 1   
    24    12    16 1   
    25    12    36 1   
    26    13    14 1   
    27    13    15 1   
    28    16    17 1   
    29    16    18 1   
    30    16    37 1   
    31    17    22 2   
    32    18    19 1   
    33    19    20 1   
    34    19    38 1   
    35    19    39 1   
    36    20    21 1   
    37    20    22 1   
    38    20    40 1   
    39    21    41 1   
    40    21    42 1   
    41    21    43 1   
    42    22    23 1   
    43    23    24 1   
    44    23    25 1   
@<TRIPOS>SUBSTRUCTURE
     1 3S3         1 TEMP              0 ****  ****    0 ROOT
