@<TRIPOS>MOLECULE
3S4
   24    23     1     0     0
SMALL
No Charge or Current Charge


@<TRIPOS>ATOM
      1 C            0.5490    -0.3220     1.8640 c3         1 3S4      -0.103100
      2 O           -0.9020     3.9670    -0.2080 oh         1 3S4      -0.711000
      3 P           -1.6160    -0.9840    -0.3870 p5         1 3S4       1.291900
      4 C1           0.5640     0.4570     0.5150 c3         1 3S4       0.303000
      5 O1           2.8380    -1.3650    -1.0270 o          1 3S4      -0.777500
      6 C2          -0.1170     1.8520     0.7310 c3         1 3S4      -0.095400
      7 O2           3.5060    -0.9250     0.9650 o          1 3S4      -0.777500
      8 C3          -0.3170     2.6990    -0.5490 c3         1 3S4       0.152600
      9 O3          -0.1620    -0.2790    -0.5010 os         1 3S4      -0.574400
     10 C4           2.0190     0.6450    -0.0310 c3         1 3S4      -0.180400
     11 O4          -1.5700    -2.1610     0.5230 o          1 3S4      -0.942500
     12 C5           2.8300    -0.6680    -0.0220 c          1 3S4       0.745000
     13 O5          -2.6550    -0.0250     0.0780 o          1 3S4      -0.942500
     14 O6          -2.0020    -1.4620    -1.7440 o          1 3S4      -0.942500
     15 H            1.2350     0.1450     2.5800 hc         1 3S4       0.023367
     16 HA          -0.4470    -0.3150     2.3210 hc         1 3S4       0.023367
     17 HB           0.8570    -1.3650     1.7330 hc         1 3S4       0.023367
     18 HO          -1.0390     4.4530    -1.0510 ho         1 3S4       0.391000
     19 H2          -1.0840     1.7260     1.2300 hc         1 3S4       0.018200
     20 H2A          0.4970     2.4290     1.4330 hc         1 3S4       0.018200
     21 H3          -0.9660     2.1550    -1.2500 h1         1 3S4       0.047700
     22 H3A          0.6500     2.8560    -1.0430 h1         1 3S4       0.047700
     23 H4           1.9230     1.0150    -1.0610 hc         1 3S4      -0.018800
     24 H4A          2.4940     1.3730     0.6410 hc         1 3S4      -0.018800
@<TRIPOS>BOND
     1     1     4 1   
     2     1    15 1   
     3     1    16 1   
     4     1    17 1   
     5     2     8 1   
     6     2    18 1   
     7     3     9 1   
     8     3    11 1   
     9     3    13 1   
    10     3    14 1   
    11     4     6 1   
    12     4     9 1   
    13     4    10 1   
    14     5    12 1   
    15     6     8 1   
    16     6    19 1   
    17     6    20 1   
    18     7    12 1   
    19     8    21 1   
    20     8    22 1   
    21    10    12 1   
    22    10    23 1   
    23    10    24 1   
@<TRIPOS>SUBSTRUCTURE
     1 3S4         1 TEMP              0 ****  ****    0 ROOT
