@<TRIPOS>MOLECULE
3S4
   24    23     1     0     0
SMALL
bcc


@<TRIPOS>ATOM
      1 C            0.4830    -0.2130     1.9460 c3         1 3S4      -0.103100
      2 O           -0.8090     3.8710    -0.3600 oh         1 3S4      -0.648800
      3 P           -1.5820    -0.9770    -0.3480 p5         1 3S4       1.291900
      4 C1           0.5720     0.4730     0.5820 c3         1 3S4       0.279800
      5 O1           2.9860    -0.8660    -1.4370 o          1 3S4      -0.882800
      6 C2          -0.0590     1.8780     0.7080 c3         1 3S4      -0.095400
      7 O2           3.0620    -1.4460     0.7060 o          1 3S4      -0.882800
      8 C3          -0.4080     2.5330    -0.6130 c3         1 3S4       0.129400
      9 O3          -0.0440    -0.2740    -0.4420 os         1 3S4      -0.551200
     10 C4           2.0460     0.6390     0.1560 c3         1 3S4      -0.180400
     11 O4          -1.4110    -2.2810     0.4240 o          1 3S4      -0.942500
     12 C5           2.7490    -0.6720    -0.2250 c          1 3S4       0.955600
     13 O5          -2.4970     0.0370     0.3410 o          1 3S4      -0.942500
     14 O6          -1.8860    -1.1750    -1.8350 o          1 3S4      -0.942500
     15 H            1.0340     0.3610     2.6940 hc         1 3S4       0.023367
     16 HA          -0.5550    -0.2810     2.2670 hc         1 3S4       0.023367
     17 HB           0.9050    -1.2120     1.9070 hc         1 3S4       0.023367
     18 HO          -1.0860     4.2580    -1.1940 ho         1 3S4       0.352000
     19 H2          -0.9720     1.8100     1.3030 hc         1 3S4       0.018200
     20 H2A          0.6390     2.5200     1.2570 hc         1 3S4       0.018200
     21 H3          -1.2140     1.9640    -1.0860 h1         1 3S4       0.047700
     22 H3A          0.4490     2.5090    -1.2980 h1         1 3S4       0.047700
     23 H4           2.0940     1.3270    -0.6930 hc         1 3S4      -0.018800
     24 H4A          2.5860     1.1170     0.9800 hc         1 3S4      -0.018800
@<TRIPOS>BOND
     1     1     4 1   
     2     1    15 1   
     3     1    16 1   
     4     1    17 1   
     5     2     8 1   
     6     2    18 1   
     7     3     9 1   
     8     3    11 1   
     9     3    13 1   
    10     3    14 1   
    11     4     6 1   
    12     4     9 1   
    13     4    10 1   
    14     5    12 1   
    15     6     8 1   
    16     6    19 1   
    17     6    20 1   
    18     7    12 1   
    19     8    21 1   
    20     8    22 1   
    21    10    12 1   
    22    10    23 1   
    23    10    24 1   
@<TRIPOS>SUBSTRUCTURE
     1 3S4         1 TEMP              0 ****  ****    0 ROOT
