@<TRIPOS>MOLECULE
3S6
   31    31     1     0     0
SMALL
No Charge or Current Charge


@<TRIPOS>ATOM
      1 CAA          5.3050     1.2090     0.3300 c2         1 3S6      -0.307000
      2 CAF          4.0270     0.9440     0.6520 c2         1 3S6      -0.217200
      3 CAH          2.8550     0.9640    -0.3050 c3         1 3S6       0.196800
      4 OAI          2.0580    -0.1950    -0.0280 os         1 3S6      -0.464000
      5 CAN          0.8940    -0.3880    -0.8610 c5         1 3S6       0.348300
      6 OAJ         -0.0580     0.6580    -0.5850 os         1 3S6      -0.479000
      7 CAL          0.1590    -1.7060    -0.4330 c5         1 3S6       0.108300
      8 OAD         -0.8140    -2.1200    -1.4170 oh         1 3S6      -0.703000
      9 CAM         -0.5420    -1.2330     0.8900 c5         1 3S6       0.149300
     10 OAE          0.3110    -1.3010     2.0490 oh         1 3S6      -0.700000
     11 CAO         -0.9120     0.2540     0.5260 c5         1 3S6       0.129300
     12 CAK         -2.4110     0.4840     0.1490 c3         1 3S6       0.174300
     13 OAC         -2.8190    -0.3860    -0.9360 oh         1 3S6      -0.699000
     14 CAG         -2.7230     1.9720    -0.1940 c3         1 3S6       0.136600
     15 OAB         -4.1410     2.2080    -0.2990 oh         1 3S6      -0.648000
     16 H1           6.1000     1.1760     1.0770 ha         1 3S6       0.163500
     17 H2           5.6010     1.4660    -0.6880 ha         1 3S6       0.163500
     18 H4           3.7530     0.6890     1.6770 ha         1 3S6       0.183000
     19 H6           2.2730     1.8830    -0.1560 h1         1 3S6       0.034700
     20 H7           3.2140     0.9470    -1.3430 h1         1 3S6       0.034700
     21 H8           1.1800    -0.3980    -1.9210 h2         1 3S6       0.066700
     22 H9           0.8750    -2.5170    -0.2390 h1         1 3S6       0.068700
     23 H10         -0.3480    -2.7040    -2.0650 ho         1 3S6       0.509000
     24 H11         -1.4500    -1.8270     1.0750 h1         1 3S6       0.078700
     25 H12          0.5870    -2.2410     2.1570 ho         1 3S6       0.509000
     26 H13         -0.6860     0.9070     1.3800 h1         1 3S6       0.077700
     27 H14         -2.9930     0.2380     1.0490 h1         1 3S6       0.084700
     28 H15         -2.0380    -0.9740    -1.1440 ho         1 3S6       0.512000
     29 H16         -2.3010     2.6110     0.5930 h1         1 3S6       0.025700
     30 H17         -2.2220     2.2390    -1.1350 h1         1 3S6       0.025700
     31 H18         -4.2560     3.1370    -0.5980 ho         1 3S6       0.440000
@<TRIPOS>BOND
     1     1     2 2   
     2     1    16 1   
     3     1    17 1   
     4     2     3 1   
     5     2    18 1   
     6     3     4 1   
     7     3    19 1   
     8     3    20 1   
     9     4     5 1   
    10     5     6 1   
    11     5     7 1   
    12     5    21 1   
    13     6    11 1   
    14     7     8 1   
    15     7     9 1   
    16     7    22 1   
    17     8    23 1   
    18     9    10 1   
    19     9    11 1   
    20     9    24 1   
    21    10    25 1   
    22    11    12 1   
    23    11    26 1   
    24    12    13 1   
    25    12    14 1   
    26    12    27 1   
    27    13    28 1   
    28    14    15 1   
    29    14    29 1   
    30    14    30 1   
    31    15    31 1   
@<TRIPOS>SUBSTRUCTURE
     1 3S6         1 TEMP              0 ****  ****    0 ROOT
