@<TRIPOS>MOLECULE
3S6
   31    31     1     0     0
SMALL
abcg2


@<TRIPOS>ATOM
      1 CAA          5.1580     1.1970     0.1450 c2         1 3S6      -0.307000
      2 CAF          3.9220     1.0860     0.6160 c2         1 3S6      -0.217200
      3 CAH          2.7100     1.0010    -0.2510 c3         1 3S6       0.196800
      4 OAI          2.0080    -0.1870     0.0740 os         1 3S6      -0.464000
      5 CAN          0.9380    -0.4670    -0.7660 c5         1 3S6       0.348300
      6 OAJ         -0.0960     0.4690    -0.6550 os         1 3S6      -0.479000
      7 CAL          0.3080    -1.7830    -0.3120 c5         1 3S6       0.108300
      8 OAD         -0.4890    -2.3320    -1.3320 oh         1 3S6      -0.703000
      9 CAM         -0.6260    -1.3230     0.8170 c5         1 3S6       0.149300
     10 OAE         -0.0350    -1.3870     2.0900 oh         1 3S6      -0.700000
     11 CAO         -0.8980     0.1570     0.4810 c5         1 3S6       0.129300
     12 CAK         -2.3510     0.4780     0.1600 c3         1 3S6       0.174300
     13 OAC         -2.8770    -0.3390    -0.8580 oh         1 3S6      -0.699000
     14 CAG         -2.5300     1.9590    -0.1430 c3         1 3S6       0.136600
     15 OAB         -3.9090     2.2300    -0.2350 oh         1 3S6      -0.648000
     16 H1           6.0110     1.2860     0.8050 ha         1 3S6       0.163500
     17 H2           5.3620     1.2100    -0.9190 ha         1 3S6       0.163500
     18 H4           3.7500     1.0770     1.6880 ha         1 3S6       0.183000
     19 H6           2.0750     1.8800    -0.0860 h1         1 3S6       0.034700
     20 H7           2.9980     1.0030    -1.3110 h1         1 3S6       0.034700
     21 H8           1.2590    -0.4690    -1.8180 h2         1 3S6       0.066700
     22 H9           1.0640    -2.4920     0.0450 h1         1 3S6       0.068700
     23 H10          0.0830    -2.5960    -2.0600 ho         1 3S6       0.509000
     24 H11         -1.5480    -1.9140     0.7810 h1         1 3S6       0.078700
     25 H12          0.0320    -2.3130     2.3430 ho         1 3S6       0.509000
     26 H13         -0.5920     0.7690     1.3390 h1         1 3S6       0.077700
     27 H14         -2.9260     0.2490     1.0650 h1         1 3S6       0.084700
     28 H15         -2.2470    -0.3660    -1.5860 ho         1 3S6       0.512000
     29 H16         -2.0580     2.5390     0.6610 h1         1 3S6       0.025700
     30 H17         -2.0060     2.2140    -1.0730 h1         1 3S6       0.025700
     31 H18         -4.0160     3.1620    -0.4470 ho         1 3S6       0.440000
@<TRIPOS>BOND
     1     1     2 2   
     2     1    16 1   
     3     1    17 1   
     4     2     3 1   
     5     2    18 1   
     6     3     4 1   
     7     3    19 1   
     8     3    20 1   
     9     4     5 1   
    10     5     6 1   
    11     5     7 1   
    12     5    21 1   
    13     6    11 1   
    14     7     8 1   
    15     7     9 1   
    16     7    22 1   
    17     8    23 1   
    18     9    10 1   
    19     9    11 1   
    20     9    24 1   
    21    10    25 1   
    22    11    12 1   
    23    11    26 1   
    24    12    13 1   
    25    12    14 1   
    26    12    27 1   
    27    13    28 1   
    28    14    15 1   
    29    14    29 1   
    30    14    30 1   
    31    15    31 1   
@<TRIPOS>SUBSTRUCTURE
     1 3S6         1 TEMP              0 ****  ****    0 ROOT
