@<TRIPOS>MOLECULE
3S9
   24    24     1     0     0
SMALL
bcc


@<TRIPOS>ATOM
      1 N14          4.7480    -0.0520    -1.9150 n1         1 3S9      -0.348800
      2 C13          4.3200     0.0120    -0.8500 c1         1 3S9       0.179700
      3 C12          3.7750     0.0870     0.5120 c3         1 3S9       0.190100
      4 N11          2.3640     0.3330     0.5270 ns         1 3S9      -0.570900
      5 C9           1.5000    -0.6230     0.1210 c          1 3S9       0.755100
      6 O10          1.8390    -1.7320    -0.2310 o          1 3S9      -0.579000
      7 O8           0.2440    -0.1870     0.1670 os         1 3S9      -0.430900
      8 C7          -0.7800    -1.1080    -0.2390 c3         1 3S9       0.208700
      9 C2          -2.5830     0.3610    -1.1810 ca         1 3S9      -0.101000
     10 C3          -3.7780     1.0560    -1.0570 ca         1 3S9      -0.133500
     11 C4          -4.4870     1.0110     0.1370 ca         1 3S9      -0.114000
     12 C5          -3.9980     0.2690     1.2040 ca         1 3S9      -0.133500
     13 C6          -2.8020    -0.4240     1.0770 ca         1 3S9      -0.101000
     14 C1          -2.0860    -0.3850    -0.1160 ca         1 3S9      -0.105300
     15 H1           4.0310    -0.8370     1.0310 h1         1 3S9       0.081200
     16 H2           4.2790     0.8980     1.0350 h1         1 3S9       0.081200
     17 H3           2.0400     1.2690     0.7100 hn         1 3S9       0.338500
     18 H4          -0.6050    -1.4290    -1.2680 h1         1 3S9       0.059200
     19 H5          -0.7620    -1.9900     0.4040 h1         1 3S9       0.059200
     20 H6          -2.0360     0.3930    -2.1160 ha         1 3S9       0.133500
     21 H7          -4.1570     1.6300    -1.8920 ha         1 3S9       0.133500
     22 H8          -5.4200     1.5500     0.2340 ha         1 3S9       0.132000
     23 H9          -4.5480     0.2300     2.1350 ha         1 3S9       0.133500
     24 H10         -2.4250    -1.0060     1.9100 ha         1 3S9       0.133500
@<TRIPOS>BOND
     1     1     2 3   
     2     2     3 1   
     3     3     4 1   
     4     3    15 1   
     5     3    16 1   
     6     4     5 1   
     7     4    17 1   
     8     5     6 2   
     9     5     7 1   
    10     7     8 1   
    11     8    14 1   
    12     8    18 1   
    13     8    19 1   
    14     9    10 ar  
    15     9    14 ar  
    16     9    20 1   
    17    10    11 ar  
    18    10    21 1   
    19    11    12 ar  
    20    11    22 1   
    21    12    13 ar  
    22    12    23 1   
    23    13    14 ar  
    24    13    24 1   
@<TRIPOS>SUBSTRUCTURE
     1 3S9         1 TEMP              0 ****  ****    0 ROOT
