@<TRIPOS>MOLECULE
3S9
   24    24     1     0     0
SMALL
No Charge or Current Charge


@<TRIPOS>ATOM
      1 N14          4.9790     0.4020    -1.8760 n1         1 3S9      -0.438000
      2 C13          4.5000     0.2380    -0.8250 c1         1 3S9       0.268900
      3 C12          3.8700     0.0550     0.4940 c3         1 3S9       0.190100
      4 N11          2.4100     0.2260     0.4380 ns         1 3S9      -0.503900
      5 C9           1.5320    -0.7560     0.0880 c          1 3S9       0.639100
      6 O10          1.8420    -1.8970    -0.2170 o          1 3S9      -0.530000
      7 O8           0.2690    -0.2560     0.1320 os         1 3S9      -0.454100
      8 C7          -0.8080    -1.1430    -0.2100 c3         1 3S9       0.231900
      9 C2          -2.6310     0.3270    -1.2020 ca         1 3S9      -0.083000
     10 C3          -3.8410     1.0370    -1.0940 ca         1 3S9      -0.115500
     11 C4          -4.5430     1.0500     0.1230 ca         1 3S9      -0.096000
     12 C5          -4.0340     0.3550     1.2330 ca         1 3S9      -0.115500
     13 C6          -2.8250    -0.3550     1.1260 ca         1 3S9      -0.083000
     14 C1          -2.1180    -0.3740    -0.0930 ca         1 3S9      -0.105300
     15 H1           4.1120    -0.9480     0.8690 h1         1 3S9       0.081200
     16 H2           4.2920     0.7900     1.1910 h1         1 3S9       0.081200
     17 H3           2.0070     1.1270     0.6620 hn         1 3S9       0.338500
     18 H4          -0.6930    -1.5190    -1.2350 h1         1 3S9       0.059200
     19 H5          -0.8290    -2.0090     0.4660 h1         1 3S9       0.059200
     20 H6          -2.0930     0.3240    -2.1480 ha         1 3S9       0.115500
     21 H7          -4.2330     1.5760    -1.9540 ha         1 3S9       0.115500
     22 H8          -5.4790     1.5990     0.2060 ha         1 3S9       0.114000
     23 H9          -4.5760     0.3650     2.1760 ha         1 3S9       0.115500
     24 H10         -2.4370    -0.8890     1.9910 ha         1 3S9       0.115500
@<TRIPOS>BOND
     1     1     2 3   
     2     2     3 1   
     3     3     4 1   
     4     3    15 1   
     5     3    16 1   
     6     4     5 1   
     7     4    17 1   
     8     5     6 2   
     9     5     7 1   
    10     7     8 1   
    11     8    14 1   
    12     8    18 1   
    13     8    19 1   
    14     9    10 ar  
    15     9    14 ar  
    16     9    20 1   
    17    10    11 ar  
    18    10    21 1   
    19    11    12 ar  
    20    11    22 1   
    21    12    13 ar  
    22    12    23 1   
    23    13    14 ar  
    24    13    24 1   
@<TRIPOS>SUBSTRUCTURE
     1 3S9         1 TEMP              0 ****  ****    0 ROOT
