@<TRIPOS>MOLECULE
3SA
   66    68     1     0     0
SMALL
No Charge or Current Charge


@<TRIPOS>ATOM
      1 C1X          6.6620     0.5230    -0.4780 c6         1 3SA       0.358300
      2 C2X          6.1600    -0.7550     0.2800 c6         1 3SA       0.118300
      3 C3X          4.6480    -0.9890    -0.0020 c6         1 3SA       0.166300
      4 C4X          3.8340     0.2960     0.3600 c6         1 3SA       0.161300
      5 C5X          4.4040     1.4910    -0.4580 c6         1 3SA       0.151300
      6 C6X          3.6750     2.8330    -0.1200 c3         1 3SA       0.163600
      7 O1X          6.6350     0.3330    -1.8900 oh         1 3SA      -0.720000
      8 O2X          6.9230    -1.9280    -0.0880 oh         1 3SA      -0.705000
      9 O3X          4.2020    -2.1670     0.7060 oh         1 3SA      -0.735000
     10 O4X          2.4140     0.1320     0.1170 os         1 3SA      -0.494000
     11 O5X          5.8260     1.6550    -0.1770 os         1 3SA      -0.470000
     12 O6X          4.2170     3.9700    -0.8250 oh         1 3SA      -0.711000
     13 C1Y          1.6690    -0.5180     1.1690 c6         1 3SA       0.367300
     14 C2Y          0.8580    -1.7470     0.6460 c6         1 3SA       0.107300
     15 C3Y         -0.2770    -1.2690    -0.3060 c6         1 3SA       0.148300
     16 C4Y         -1.1710    -0.1750     0.3890 c6         1 3SA       0.168500
     17 C5Y         -0.2370     0.9700     0.9160 c6         1 3SA       0.157300
     18 C6Y         -0.9940     2.0360     1.7510 c3         1 3SA      -0.096100
     19 O2Y          1.6920    -2.7270    -0.0280 oh         1 3SA      -0.732000
     20 O3Y         -1.0190    -2.4300    -0.7250 oh         1 3SA      -0.653000
     21 N4Y         -2.2280     0.3820    -0.5240 n7         1 3SA      -0.874400
     22 O5Y          0.7940     0.4450     1.7850 os         1 3SA      -0.469000
     23 C1Z         -3.5190    -0.3620    -0.5770 c6         1 3SA       0.224700
     24 C2Z         -4.3750     0.0450    -1.8340 c6         1 3SA       0.193300
     25 O2Z         -4.4520     1.4810    -1.9920 oh         1 3SA      -0.709000
     26 C3Z         -5.8200    -0.5350    -1.7000 c6         1 3SA       0.106300
     27 O3Z         -5.7870    -1.9750    -1.6090 oh         1 3SA      -0.641000
     28 C4Z         -6.5170     0.1000    -0.4470 c6         1 3SA       0.183500
     29 O4Z         -6.7890     1.4920    -0.6880 oh         1 3SA      -0.706000
     30 C5Z         -5.6370     0.0040     0.8000 c2         1 3SA      -0.125400
     31 C6Z         -4.2990    -0.1650     0.7270 c2         1 3SA      -0.193200
     32 C7Z         -6.3770     0.1020     2.1240 c3         1 3SA       0.206800
     33 O7Z         -6.3800    -1.1730     2.7740 oh         1 3SA      -0.661000
     34 H1X          7.6920     0.7450    -0.1570 h2         1 3SA       0.062700
     35 H2X          6.2800    -0.5650     1.3570 h1         1 3SA       0.053700
     36 H3X          4.5310    -1.1530    -1.0840 h1         1 3SA       0.079700
     37 H4X          3.9810     0.5270     1.4260 h1         1 3SA       0.055700
     38 H5X          4.2620     1.2940    -1.5310 h1         1 3SA       0.076700
     39 H6X1         2.6100     2.7170    -0.3630 h1         1 3SA       0.036200
     40 H6X2         3.7440     2.9940     0.9640 h1         1 3SA       0.036200
     41 H6           6.8490     1.2170    -2.2630 ho         1 3SA       0.519000
     42 H5           7.1610    -1.7980    -1.0390 ho         1 3SA       0.510000
     43 H4           5.0200    -2.7220     0.7880 ho         1 3SA       0.529000
     44 H6X          3.7460     4.7680    -0.4900 ho         1 3SA       0.504000
     45 H1Y          2.3650    -0.8840     1.9410 h2         1 3SA       0.075700
     46 H2Y          0.3870    -2.2080     1.5280 h1         1 3SA       0.087700
     47 H3Y          0.1960    -0.8030    -1.1840 h1         1 3SA       0.054700
     48 H1          -1.6410    -0.6330     1.2700 h1         1 3SA       0.052700
     49 H5Y          0.2390     1.4760     0.0640 h1         1 3SA       0.060700
     50 H6Y1        -0.2970     2.7760     2.1620 hc         1 3SA       0.048367
     51 H6Y2        -1.7240     2.5810     1.1420 hc         1 3SA       0.048367
     52 H6Y3        -1.5300     1.5770     2.5900 hc         1 3SA       0.048367
     53 H3           2.6410    -2.5090     0.2240 ho         1 3SA       0.537000
     54 H2          -0.3280    -3.1250    -0.8290 ho         1 3SA       0.453000
     55 H4Y         -2.4540     1.3470    -0.2640 hn         1 3SA       0.435000
     56 H1Z         -3.3180    -1.4390    -0.6810 h1         1 3SA       0.105700
     57 H2Z         -3.9000    -0.3950    -2.7230 h1         1 3SA       0.062700
     58 H7          -5.2890     1.7130    -1.5000 ho         1 3SA       0.503000
     59 H3Z         -6.3920    -0.2510    -2.5960 h1         1 3SA       0.025700
     60 H8          -6.7190    -2.2860    -1.6020 ho         1 3SA       0.441000
     61 H4Z         -7.4630    -0.4330    -0.2700 h1         1 3SA       0.023700
     62 H9          -7.4970     1.7570    -0.0570 ho         1 3SA       0.494000
     63 H6Z         -3.7270    -0.2390     1.6490 ha         1 3SA       0.192000
     64 H7Z1        -5.8820     0.8490     2.7590 h1         1 3SA       0.025700
     65 H7Z2        -7.4080     0.4430     1.9600 h1         1 3SA       0.025700
     66 H7Z         -6.8530    -1.0540     3.6270 ho         1 3SA       0.445000
@<TRIPOS>BOND
     1     1     2 1   
     2     1     7 1   
     3     1    11 1   
     4     1    34 1   
     5     2     3 1   
     6     2     8 1   
     7     2    35 1   
     8     3     4 1   
     9     3     9 1   
    10     3    36 1   
    11     4     5 1   
    12     4    10 1   
    13     4    37 1   
    14     5     6 1   
    15     5    11 1   
    16     5    38 1   
    17     6    12 1   
    18     6    39 1   
    19     6    40 1   
    20     7    41 1   
    21     8    42 1   
    22     9    43 1   
    23    10    13 1   
    24    12    44 1   
    25    13    14 1   
    26    13    22 1   
    27    13    45 1   
    28    14    15 1   
    29    14    19 1   
    30    14    46 1   
    31    15    16 1   
    32    15    20 1   
    33    15    47 1   
    34    16    17 1   
    35    16    21 1   
    36    16    48 1   
    37    17    18 1   
    38    17    22 1   
    39    17    49 1   
    40    18    50 1   
    41    18    51 1   
    42    18    52 1   
    43    19    53 1   
    44    20    54 1   
    45    21    23 1   
    46    21    55 1   
    47    23    24 1   
    48    23    31 1   
    49    23    56 1   
    50    24    25 1   
    51    24    26 1   
    52    24    57 1   
    53    25    58 1   
    54    26    27 1   
    55    26    28 1   
    56    26    59 1   
    57    27    60 1   
    58    28    29 1   
    59    28    30 1   
    60    28    61 1   
    61    29    62 1   
    62    30    31 2   
    63    30    32 1   
    64    31    63 1   
    65    32    33 1   
    66    32    64 1   
    67    32    65 1   
    68    33    66 1   
@<TRIPOS>SUBSTRUCTURE
     1 3SA         1 TEMP              0 ****  ****    0 ROOT
