@<TRIPOS>MOLECULE
3SA
   66    68     1     0     0
SMALL
abcg2


@<TRIPOS>ATOM
      1 C1X          6.1600     0.9450    -0.9590 c6         1 3SA       0.358300
      2 C2X          5.8970    -0.5550    -0.8100 c6         1 3SA       0.118300
      3 C3X          4.3990    -0.8220    -0.7500 c6         1 3SA       0.166300
      4 C4X          3.7670     0.0070     0.3600 c6         1 3SA       0.161300
      5 C5X          4.1260     1.4870     0.1760 c6         1 3SA       0.151300
      6 C6X          3.6660     2.3390     1.3400 c3         1 3SA       0.163600
      7 O1X          5.7200     1.3550    -2.2100 oh         1 3SA      -0.720000
      8 O2X          6.4280    -1.3050    -1.8720 oh         1 3SA      -0.705000
      9 O3X          4.1350    -2.1810    -0.4750 oh         1 3SA      -0.735000
     10 O4X          2.3730    -0.1910     0.2940 os         1 3SA      -0.494000
     11 O5X          5.5340     1.6310     0.0940 os         1 3SA      -0.470000
     12 O6X          3.9710     3.6850     1.0590 oh         1 3SA      -0.711000
     13 C1Y          1.6650    -0.5490     1.4500 c6         1 3SA       0.367300
     14 C2Y          0.8770    -1.8270     1.1750 c6         1 3SA       0.107300
     15 C3Y         -0.2000    -1.5560     0.1270 c6         1 3SA       0.148300
     16 C4Y         -1.0930    -0.3960     0.5700 c6         1 3SA       0.168500
     17 C5Y         -0.2240     0.8200     0.9230 c6         1 3SA       0.157300
     18 C6Y         -1.0020     1.9400     1.5880 c3         1 3SA      -0.096100
     19 O2Y          1.6990    -2.9110     0.8280 oh         1 3SA      -0.732000
     20 O3Y         -1.0040    -2.6960    -0.0670 oh         1 3SA      -0.653000
     21 N4Y         -2.0360    -0.0590    -0.4850 n7         1 3SA      -0.874400
     22 O5Y          0.8000     0.4640     1.8480 os         1 3SA      -0.469000
     23 C1Z         -3.3830    -0.5880    -0.3410 c6         1 3SA       0.224700
     24 C2Z         -4.0930    -0.5530    -1.6880 c6         1 3SA       0.193300
     25 O2Z         -3.9920     0.7570    -2.1920 oh         1 3SA      -0.709000
     26 C3Z         -5.5520    -0.9690    -1.5160 c6         1 3SA       0.106300
     27 O3Z         -5.5360    -2.2840    -1.0110 oh         1 3SA      -0.641000
     28 C4Z         -6.3120    -0.0220    -0.5730 c6         1 3SA       0.183500
     29 O4Z         -6.7620     1.1460    -1.2340 oh         1 3SA      -0.706000
     30 C5Z         -5.4900     0.3960     0.6150 c2         1 3SA      -0.125400
     31 C6Z         -4.1920     0.1220     0.7120 c2         1 3SA      -0.193200
     32 C7Z         -6.2580     1.1320     1.6740 c3         1 3SA       0.206800
     33 O7Z         -5.4600     1.3720     2.8040 oh         1 3SA      -0.661000
     34 H1X          7.2290     1.1500    -0.8250 h2         1 3SA       0.062700
     35 H2X          6.3360    -0.8600     0.1500 h1         1 3SA       0.053700
     36 H3X          3.9410    -0.5270    -1.7040 h1         1 3SA       0.079700
     37 H4X          4.1640    -0.3380     1.3270 h1         1 3SA       0.055700
     38 H5X          3.6410     1.8500    -0.7410 h1         1 3SA       0.076700
     39 H6X1         2.5920     2.1950     1.4820 h1         1 3SA       0.036200
     40 H6X2         4.1630     1.9900     2.2560 h1         1 3SA       0.036200
     41 H6           6.0580     2.2390    -2.3880 ho         1 3SA       0.519000
     42 H5           7.3710    -1.4260    -1.7260 ho         1 3SA       0.510000
     43 H4           4.4490    -2.7130    -1.2150 ho         1 3SA       0.529000
     44 H6X          3.6050     4.2240     1.7660 ho         1 3SA       0.504000
     45 H1Y          2.3570    -0.7030     2.2880 h2         1 3SA       0.075700
     46 H2Y          0.3780    -2.1030     2.1110 h1         1 3SA       0.087700
     47 H3Y          0.2800    -1.2630    -0.8190 h1         1 3SA       0.054700
     48 H1          -1.6100    -0.7020     1.4930 h1         1 3SA       0.052700
     49 H5Y          0.2310     1.2040    -0.0000 h1         1 3SA       0.060700
     50 H6Y1        -0.3360     2.7640     1.8450 hc         1 3SA       0.048367
     51 H6Y2        -1.7680     2.3450     0.9290 hc         1 3SA       0.048367
     52 H6Y3        -1.4900     1.5920     2.5000 hc         1 3SA       0.048367
     53 H3           2.4010    -2.6190     0.2220 ho         1 3SA       0.537000
     54 H2          -0.4200    -3.4280    -0.2960 ho         1 3SA       0.453000
     55 H4Y         -2.0800     0.9390    -0.6420 hn         1 3SA       0.435000
     56 H1Z         -3.2790    -1.6370    -0.0580 h1         1 3SA       0.105700
     57 H2Z         -3.5970    -1.2680    -2.3610 h1         1 3SA       0.062700
     58 H7          -4.6180     0.8690    -2.9130 ho         1 3SA       0.503000
     59 H3Z         -6.0500    -0.9400    -2.4990 h1         1 3SA       0.025700
     60 H8          -6.4400    -2.6120    -0.9790 ho         1 3SA       0.441000
     61 H4Z         -7.1830    -0.5820    -0.1950 h1         1 3SA       0.023700
     62 H9          -7.5420     0.9170    -1.7490 ho         1 3SA       0.494000
     63 H6Z         -3.6550     0.4200     1.6060 ha         1 3SA       0.192000
     64 H7Z1        -6.6350     2.0700     1.2440 h1         1 3SA       0.025700
     65 H7Z2        -7.1510     0.5390     1.9290 h1         1 3SA       0.025700
     66 H7Z         -5.9530     1.9420     3.4010 ho         1 3SA       0.445000
@<TRIPOS>BOND
     1     1     2 1   
     2     1     7 1   
     3     1    11 1   
     4     1    34 1   
     5     2     3 1   
     6     2     8 1   
     7     2    35 1   
     8     3     4 1   
     9     3     9 1   
    10     3    36 1   
    11     4     5 1   
    12     4    10 1   
    13     4    37 1   
    14     5     6 1   
    15     5    11 1   
    16     5    38 1   
    17     6    12 1   
    18     6    39 1   
    19     6    40 1   
    20     7    41 1   
    21     8    42 1   
    22     9    43 1   
    23    10    13 1   
    24    12    44 1   
    25    13    14 1   
    26    13    22 1   
    27    13    45 1   
    28    14    15 1   
    29    14    19 1   
    30    14    46 1   
    31    15    16 1   
    32    15    20 1   
    33    15    47 1   
    34    16    17 1   
    35    16    21 1   
    36    16    48 1   
    37    17    18 1   
    38    17    22 1   
    39    17    49 1   
    40    18    50 1   
    41    18    51 1   
    42    18    52 1   
    43    19    53 1   
    44    20    54 1   
    45    21    23 1   
    46    21    55 1   
    47    23    24 1   
    48    23    31 1   
    49    23    56 1   
    50    24    25 1   
    51    24    26 1   
    52    24    57 1   
    53    25    58 1   
    54    26    27 1   
    55    26    28 1   
    56    26    59 1   
    57    27    60 1   
    58    28    29 1   
    59    28    30 1   
    60    28    61 1   
    61    29    62 1   
    62    30    31 2   
    63    30    32 1   
    64    31    63 1   
    65    32    33 1   
    66    32    64 1   
    67    32    65 1   
    68    33    66 1   
@<TRIPOS>SUBSTRUCTURE
     1 3SA         1 TEMP              0 ****  ****    0 ROOT
