@<TRIPOS>MOLECULE
3SB
   39    40     1     0     0
SMALL
abcg2


@<TRIPOS>ATOM
      1 C1          -3.8920     0.0760    -0.1380 ca         1 3SB      -0.136300
      2 N1          -3.8410    -2.0240    -1.5430 n8         1 3SB      -0.990200
      3 O1          -1.6150    -2.0880     0.1010 o          1 3SB      -0.549100
      4 C2          -3.1890    -0.7890    -1.1730 c3         1 3SB       0.140800
      5 N2          -0.8480    -0.2330    -0.9410 ns         1 3SB      -0.265900
      6 O2           6.5480     0.0430     1.0690 oh         1 3SB      -0.529100
      7 C3          -1.8100    -1.1250    -0.6130 c          1 3SB       0.627100
      8 N3           0.3970    -0.3740    -0.4480 n2         1 3SB      -0.499300
      9 O3           2.1590    -1.6670     0.9340 oh         1 3SB      -0.542100
     10 C4           1.2950     0.4750    -0.7740 ce         1 3SB       0.434800
     11 C5           2.6500     0.3510    -0.2800 ca         1 3SB      -0.299900
     12 C6          -4.5500    -0.4920     0.9500 ca         1 3SB      -0.096500
     13 C7          -5.1600     0.3130     1.9010 ca         1 3SB      -0.105500
     14 C8          -5.1220     1.6970     1.7780 ca         1 3SB      -0.099000
     15 C9          -4.4700     2.2710     0.6950 ca         1 3SB      -0.105500
     16 C10         -3.8600     1.4630    -0.2550 ca         1 3SB      -0.096500
     17 C11          3.6270     1.3070    -0.6340 ca         1 3SB       0.027700
     18 C12          3.2840     2.4760    -1.5140 c3         1 3SB      -0.056800
     19 C13          4.9200     1.1800    -0.1680 ca         1 3SB      -0.202000
     20 C14          5.2740     0.1060     0.6540 ca         1 3SB       0.204100
     21 C15          4.3320    -0.8440     1.0140 ca         1 3SB      -0.279000
     22 C16          3.0240    -0.7270     0.5540 ca         1 3SB       0.250100
     23 HN1         -3.8470    -2.6710    -0.7650 hn         1 3SB       0.416500
     24 HN1A        -4.8060    -1.8420    -1.7860 hn         1 3SB       0.416500
     25 H2          -3.0690    -0.1860    -2.0790 h1         1 3SB       0.069700
     26 HN2         -1.0480     0.5330    -1.5740 hn         1 3SB       0.309500
     27 HO2          6.6840    -0.7270     1.6330 ho         1 3SB       0.471000
     28 HO3          1.2730    -1.4680     0.5490 ho         1 3SB       0.525000
     29 H4           1.0600     1.3080    -1.4350 h4         1 3SB      -0.012200
     30 H6          -4.5980    -1.5680     1.0610 ha         1 3SB       0.111000
     31 H7          -5.6670    -0.1420     2.7420 ha         1 3SB       0.116500
     32 H8          -5.6000     2.3220     2.5210 ha         1 3SB       0.117000
     33 H9          -4.4410     3.3470     0.5850 ha         1 3SB       0.116500
     34 H10         -3.3620     1.9180    -1.1040 ha         1 3SB       0.111000
     35 H12          2.5260     3.1160    -1.0580 hc         1 3SB       0.045367
     36 H12A         4.1630     3.0890    -1.6990 hc         1 3SB       0.045367
     37 H12B         2.8970     2.1570    -2.4830 hc         1 3SB       0.045367
     38 H13          5.6720     1.9120    -0.4380 ha         1 3SB       0.130000
     39 H15          4.5960    -1.6840     1.6470 ha         1 3SB       0.133000
@<TRIPOS>BOND
     1     1     4 1   
     2     1    12 ar  
     3     1    16 ar  
     4     2     4 1   
     5     2    23 1   
     6     2    24 1   
     7     3     7 2   
     8     4     7 1   
     9     4    25 1   
    10     5     7 1   
    11     5     8 1   
    12     5    26 1   
    13     6    20 1   
    14     6    27 1   
    15     8    10 2   
    16     9    22 1   
    17     9    28 1   
    18    10    11 1   
    19    10    29 1   
    20    11    17 ar  
    21    11    22 ar  
    22    12    13 ar  
    23    12    30 1   
    24    13    14 ar  
    25    13    31 1   
    26    14    15 ar  
    27    14    32 1   
    28    15    16 ar  
    29    15    33 1   
    30    16    34 1   
    31    17    18 1   
    32    17    19 ar  
    33    18    35 1   
    34    18    36 1   
    35    18    37 1   
    36    19    20 ar  
    37    19    38 1   
    38    20    21 ar  
    39    21    22 ar  
    40    21    39 1   
@<TRIPOS>SUBSTRUCTURE
     1 3SB         1 TEMP              0 ****  ****    0 ROOT
