@<TRIPOS>MOLECULE
3SB
   39    40     1     0     0
SMALL
No Charge or Current Charge


@<TRIPOS>ATOM
      1 C1          -3.7430     0.0900    -0.3180 ca         1 3SB      -0.136300
      2 N1          -4.2000    -2.3070     0.0250 n8         1 3SB      -0.990200
      3 O1          -1.3050    -2.0760     0.6850 o          1 3SB      -0.549100
      4 C2          -3.2660    -1.3290    -0.6260 c3         1 3SB       0.140800
      5 N2          -0.8800    -0.8640    -1.2290 ns         1 3SB      -0.265900
      6 O2           6.7210     0.2910     0.3630 oh         1 3SB      -0.529100
      7 C3          -1.7290    -1.4820    -0.3070 c          1 3SB       0.627100
      8 N3           0.5050    -0.8530    -1.1280 n2         1 3SB      -0.499300
      9 O3           2.9620    -1.8610    -1.5690 oh         1 3SB      -0.542100
     10 C4           1.0810     0.0380    -0.3760 ce         1 3SB       0.434800
     11 C5           2.5740     0.0890    -0.1900 ca         1 3SB      -0.299900
     12 C6          -3.5600     0.6470     0.9660 ca         1 3SB      -0.096500
     13 C7          -3.9910     1.9570     1.2400 ca         1 3SB      -0.105500
     14 C8          -4.6100     2.7190     0.2350 ca         1 3SB      -0.099000
     15 C9          -4.7970     2.1710    -1.0440 ca         1 3SB      -0.105500
     16 C10         -4.3660     0.8610    -1.3200 ca         1 3SB      -0.096500
     17 C11          3.1470     1.1140     0.6100 ca         1 3SB       0.027700
     18 C12          2.2930     2.1770     1.2960 c3         1 3SB      -0.056800
     19 C13          4.5420     1.1660     0.7850 ca         1 3SB      -0.202000
     20 C14          5.3750     0.2220     0.1810 ca         1 3SB       0.204100
     21 C15          4.8250    -0.7880    -0.6080 ca         1 3SB      -0.279000
     22 C16          3.4410    -0.8570    -0.7930 ca         1 3SB       0.250100
     23 HN1         -4.1510    -2.1790     1.0430 hn         1 3SB       0.416500
     24 HN1A        -5.1650    -2.0390    -0.2000 hn         1 3SB       0.416500
     25 H2          -3.3520    -1.4870    -1.7110 h1         1 3SB       0.069700
     26 HN2         -1.3470    -0.3860    -1.9970 hn         1 3SB       0.309500
     27 HO2          7.1320    -0.4480    -0.1330 ho         1 3SB       0.471000
     28 HO3          1.9800    -1.7360    -1.5860 ho         1 3SB       0.525000
     29 H4           0.4760     0.7790     0.1490 h4         1 3SB      -0.012200
     30 H6          -3.0830     0.0690     1.7550 ha         1 3SB       0.111000
     31 H7          -3.8460     2.3810     2.2310 ha         1 3SB       0.116500
     32 H8          -4.9430     3.7330     0.4480 ha         1 3SB       0.117000
     33 H9          -5.2770     2.7600    -1.8230 ha         1 3SB       0.116500
     34 H10         -4.5190     0.4490    -2.3160 ha         1 3SB       0.111000
     35 H12          1.5910     1.7230     2.0060 hc         1 3SB       0.045367
     36 H12A         2.9040     2.8920     1.8600 hc         1 3SB       0.045367
     37 H12B         1.7150     2.7540     0.5650 hc         1 3SB       0.045367
     38 H13          4.9880     1.9470     1.3960 ha         1 3SB       0.130000
     39 H15          5.4640    -1.5270    -1.0820 ha         1 3SB       0.133000
@<TRIPOS>BOND
     1     1     4 1   
     2     1    12 ar  
     3     1    16 ar  
     4     2     4 1   
     5     2    23 1   
     6     2    24 1   
     7     3     7 2   
     8     4     7 1   
     9     4    25 1   
    10     5     7 1   
    11     5     8 1   
    12     5    26 1   
    13     6    20 1   
    14     6    27 1   
    15     8    10 2   
    16     9    22 1   
    17     9    28 1   
    18    10    11 1   
    19    10    29 1   
    20    11    17 ar  
    21    11    22 ar  
    22    12    13 ar  
    23    12    30 1   
    24    13    14 ar  
    25    13    31 1   
    26    14    15 ar  
    27    14    32 1   
    28    15    16 ar  
    29    15    33 1   
    30    16    34 1   
    31    17    18 1   
    32    17    19 ar  
    33    18    35 1   
    34    18    36 1   
    35    18    37 1   
    36    19    20 ar  
    37    19    38 1   
    38    20    21 ar  
    39    21    22 ar  
    40    21    39 1   
@<TRIPOS>SUBSTRUCTURE
     1 3SB         1 TEMP              0 ****  ****    0 ROOT
