@<TRIPOS>MOLECULE
3SD
   83    85     1     0     0
SMALL
No Charge or Current Charge


@<TRIPOS>ATOM
      1 C4           6.0430     2.3540     0.5990 cc         1 3SD      -0.197000
      2 C5           6.5520     2.8490     1.7510 cd         1 3SD       0.173300
      3 C6           7.8160     3.6150     2.0160 c3         1 3SD      -0.135400
      4 O1           5.7100     2.5550     2.7900 os         1 3SD      -0.062700
      5 N2           4.5830     1.8200     2.2690 nd         1 3SD      -0.362300
      6 C3           4.8330     1.7300     0.9640 cc         1 3SD       0.228500
      7 C41          3.9590     1.0480    -0.0460 c          1 3SD       0.532600
      8 O42          4.2080     0.9780    -1.2440 o          1 3SD      -0.588100
      9 C8           1.7840    -0.2640    -0.2620 c3         1 3SD       0.049700
     10 C10          0.3680     0.0640     0.2940 c          1 3SD       0.588100
     11 N7           2.8130     0.4890     0.4910 ns         1 3SD      -0.475900
     12 C9           2.0790    -1.7880    -0.2180 c3         1 3SD      -0.176400
     13 C33          3.3740    -2.1460    -0.9450 c          1 3SD       0.598100
     14 O35          3.4380    -2.2170    -2.1640 o          1 3SD      -0.598100
     15 N34          4.4450    -2.4240    -0.1240 ns         1 3SD      -0.501900
     16 C36          5.7810    -2.8200    -0.5850 c3         1 3SD       0.107000
     17 C37          6.0580    -4.3500    -0.4810 c3         1 3SD      -0.065000
     18 C40          5.9260    -4.8240     0.9920 c3         1 3SD      -0.084767
     19 C38          5.0670    -5.1510    -1.3690 c3         1 3SD      -0.084767
     20 C39          7.5030    -4.6230    -0.9710 c3         1 3SD      -0.084767
     21 O11          0.1860     0.6360     1.3620 o          1 3SD      -0.605100
     22 N13         -0.6830    -0.3360    -0.5060 ns         1 3SD      -0.485900
     23 C12         -2.1190    -0.1440    -0.1940 c3         1 3SD       0.031700
     24 C15         -2.9310    -1.3980    -0.6340 c          1 3SD       0.583100
     25 O19         -2.4690    -2.2800    -1.3480 o          1 3SD      -0.609100
     26 C14         -2.6760     1.1490    -0.8520 c3         1 3SD      -0.085400
     27 C17         -2.0050     2.4580    -0.3760 c3         1 3SD      -0.034100
     28 C18         -2.6720     3.6880    -0.9780 ca         1 3SD      -0.077300
     29 C28         -3.7050     4.3490    -0.2840 ca         1 3SD      -0.106500
     30 C32         -2.2670     4.1700    -2.2380 ca         1 3SD      -0.106500
     31 C29         -4.3240     5.4810    -0.8440 ca         1 3SD      -0.112000
     32 C31         -2.8850     5.3020    -2.7970 ca         1 3SD      -0.112000
     33 C30         -3.9130     5.9580    -2.1000 ca         1 3SD      -0.113000
     34 C20         -5.1580    -2.5370    -0.4550 c3         1 3SD       0.153300
     35 C21         -6.5190    -2.2550     0.1610 ca         1 3SD      -0.124300
     36 C22         -6.8360    -2.7460     1.4420 ca         1 3SD      -0.090500
     37 C24         -9.0450    -1.7160     1.3100 ca         1 3SD      -0.062300
     38 C26         -7.4710    -1.4920    -0.5420 ca         1 3SD      -0.090500
     39 N16         -4.2220    -1.4580    -0.1580 ns         1 3SD      -0.500900
     40 C23         -8.0930    -2.4790     2.0120 ca         1 3SD      -0.114500
     41 C27        -10.4050    -1.4300     1.9260 c3         1 3SD      -0.049800
     42 C25         -8.7270    -1.2260     0.0290 ca         1 3SD      -0.114500
     43 H4           6.4620     2.4140    -0.3990 ha         1 3SD       0.170000
     44 H6           7.5940     4.5960     2.4520 hc         1 3SD       0.064367
     45 H6A          8.4620     3.0720     2.7150 hc         1 3SD       0.064367
     46 H6B          8.3810     3.7770     1.0900 hc         1 3SD       0.064367
     47 H8           1.7900     0.0710    -1.3090 h1         1 3SD       0.100700
     48 HN7          2.6620     0.6450     1.4840 hn         1 3SD       0.341500
     49 H9           2.1400    -2.0940     0.8330 hc         1 3SD       0.076700
     50 H9A          1.2590    -2.3230    -0.7110 hc         1 3SD       0.076700
     51 HN34         4.2850    -2.3480     0.8730 hn         1 3SD       0.313500
     52 H36          5.9160    -2.4930    -1.6250 h1         1 3SD       0.056200
     53 H36A         6.5200    -2.2780     0.0200 h1         1 3SD       0.056200
     54 H40          4.9030    -4.6920     1.3640 hc         1 3SD       0.036144
     55 H40A         6.1790    -5.8870     1.0840 hc         1 3SD       0.036144
     56 H40B         6.6010    -4.2590     1.6460 hc         1 3SD       0.036144
     57 H38          5.1160    -4.8150    -2.4120 hc         1 3SD       0.036144
     58 H38A         5.3010    -6.2220    -1.3480 hc         1 3SD       0.036144
     59 H38B         4.0340    -5.0310    -1.0220 hc         1 3SD       0.036144
     60 H39          8.2340    -4.0790    -0.3600 hc         1 3SD       0.036144
     61 H39A         7.7440    -5.6920    -0.9120 hc         1 3SD       0.036144
     62 H39B         7.6310    -4.3060    -2.0130 hc         1 3SD       0.036144
     63 HN13        -0.4480    -0.8370    -1.3570 hn         1 3SD       0.341500
     64 H12         -2.2400    -0.0650     0.8950 h1         1 3SD       0.083700
     65 H14         -3.7500     1.2220    -0.6430 hc         1 3SD       0.055200
     66 H14A        -2.5760     1.0700    -1.9410 hc         1 3SD       0.055200
     67 H17         -2.0430     2.5070     0.7190 hc         1 3SD       0.062700
     68 H17A        -0.9430     2.4470    -0.6460 hc         1 3SD       0.062700
     69 H28         -4.0310     3.9840     0.6880 ha         1 3SD       0.114000
     70 H32         -1.4730     3.6660    -2.7850 ha         1 3SD       0.114000
     71 H29         -5.1210     5.9870    -0.3040 ha         1 3SD       0.110000
     72 H31         -2.5680     5.6690    -3.7710 ha         1 3SD       0.110000
     73 H30         -4.3920     6.8340    -2.5330 ha         1 3SD       0.109000
     74 H20         -4.7550    -3.4800    -0.0610 h1         1 3SD       0.059200
     75 H20A        -5.2560    -2.6380    -1.5440 h1         1 3SD       0.059200
     76 H22         -6.1080    -3.3340     1.9970 ha         1 3SD       0.116000
     77 H26         -7.2380    -1.1040    -1.5320 ha         1 3SD       0.116000
     78 HN16        -4.5380    -0.6980     0.4310 hn         1 3SD       0.323500
     79 H23         -8.3260    -2.8660     3.0020 ha         1 3SD       0.114500
     80 H27        -11.1260    -2.2130     1.6620 hc         1 3SD       0.044700
     81 H27A       -10.3470    -1.3840     3.0200 hc         1 3SD       0.044700
     82 H27B       -10.8090    -0.4710     1.5780 hc         1 3SD       0.044700
     83 H25         -9.4550    -0.6370    -0.5250 ha         1 3SD       0.114500
@<TRIPOS>BOND
     1     1     2 2   
     2     1     6 1   
     3     1    43 1   
     4     2     3 1   
     5     2     4 1   
     6     3    44 1   
     7     3    45 1   
     8     3    46 1   
     9     4     5 1   
    10     5     6 2   
    11     6     7 1   
    12     7     8 2   
    13     7    11 1   
    14     9    10 1   
    15     9    11 1   
    16     9    12 1   
    17     9    47 1   
    18    10    21 2   
    19    10    22 1   
    20    11    48 1   
    21    12    13 1   
    22    12    49 1   
    23    12    50 1   
    24    13    14 2   
    25    13    15 1   
    26    15    16 1   
    27    15    51 1   
    28    16    17 1   
    29    16    52 1   
    30    16    53 1   
    31    17    18 1   
    32    17    19 1   
    33    17    20 1   
    34    18    54 1   
    35    18    55 1   
    36    18    56 1   
    37    19    57 1   
    38    19    58 1   
    39    19    59 1   
    40    20    60 1   
    41    20    61 1   
    42    20    62 1   
    43    22    23 1   
    44    22    63 1   
    45    23    24 1   
    46    23    26 1   
    47    23    64 1   
    48    24    25 2   
    49    24    39 1   
    50    26    27 1   
    51    26    65 1   
    52    26    66 1   
    53    27    28 1   
    54    27    67 1   
    55    27    68 1   
    56    28    29 ar  
    57    28    30 ar  
    58    29    31 ar  
    59    29    69 1   
    60    30    32 ar  
    61    30    70 1   
    62    31    33 ar  
    63    31    71 1   
    64    32    33 ar  
    65    32    72 1   
    66    33    73 1   
    67    34    35 1   
    68    34    39 1   
    69    34    74 1   
    70    34    75 1   
    71    35    36 ar  
    72    35    38 ar  
    73    36    40 ar  
    74    36    76 1   
    75    37    40 ar  
    76    37    41 1   
    77    37    42 ar  
    78    38    42 ar  
    79    38    77 1   
    80    39    78 1   
    81    40    79 1   
    82    41    80 1   
    83    41    81 1   
    84    41    82 1   
    85    42    83 1   
@<TRIPOS>SUBSTRUCTURE
     1 3SD         1 TEMP              0 ****  ****    0 ROOT
