@<TRIPOS>MOLECULE
3SD
   83    85     1     0     0
SMALL
bcc


@<TRIPOS>ATOM
      1 C4           4.3790     3.5580     0.2470 cc         1 3SD      -0.345600
      2 C5           5.4570     3.6780     1.0590 cd         1 3SD       0.283000
      3 C6           6.3300     4.8130     1.4260 c3         1 3SD      -0.135400
      4 O1           5.7250     2.4810     1.6020 os         1 3SD      -0.107100
      5 N2           4.8400     1.5610     1.1630 nd         1 3SD      -0.362300
      6 C3           4.0350     2.1920     0.3570 cc         1 3SD       0.293800
      7 C41          2.9120     1.5010    -0.3290 c          1 3SD       0.599600
      8 O42          2.1640     2.1210    -1.0650 o          1 3SD      -0.588100
      9 C8           1.7260    -0.5850    -0.6530 c3         1 3SD       0.049700
     10 C10          0.3860    -0.1500    -0.0560 c          1 3SD       0.655100
     11 N7           2.8030     0.1870    -0.0890 ns         1 3SD      -0.542900
     12 C9           1.9470    -2.0640    -0.3540 c3         1 3SD      -0.176400
     13 C33          3.2040    -2.5790    -1.0320 c          1 3SD       0.665100
     14 O35          3.3980    -2.4020    -2.2270 o          1 3SD      -0.598100
     15 N34          4.0540    -3.2330    -0.2300 ns         1 3SD      -0.568900
     16 C36          5.2990    -3.8180    -0.6810 c3         1 3SD       0.107000
     17 C37          5.7400    -5.0130     0.1730 c3         1 3SD      -0.065000
     18 C40          6.0260    -4.5810     1.6130 c3         1 3SD      -0.084767
     19 C38          4.6730    -6.1080     0.1570 c3         1 3SD      -0.084767
     20 C39          7.0320    -5.5530    -0.4420 c3         1 3SD      -0.084767
     21 O11          0.2810     0.1140     1.1300 o          1 3SD      -0.605100
     22 N13         -0.6270    -0.1440    -0.9310 ns         1 3SD      -0.552900
     23 C12         -1.9960     0.1520    -0.5860 c3         1 3SD       0.031700
     24 C15         -2.9010    -0.8440    -1.3040 c          1 3SD       0.650100
     25 O19         -2.6300    -1.2560    -2.4240 o          1 3SD      -0.609100
     26 C14         -2.4010     1.5750    -0.9940 c3         1 3SD      -0.085400
     27 C17         -1.5960     2.6560    -0.2740 c3         1 3SD      -0.034100
     28 C18         -2.0330     4.0300    -0.6990 ca         1 3SD      -0.077300
     29 C28         -3.1170     4.6560    -0.0860 ca         1 3SD      -0.124500
     30 C32         -1.3890     4.6900    -1.7430 ca         1 3SD      -0.124500
     31 C29         -3.5460     5.9090    -0.5040 ca         1 3SD      -0.130000
     32 C31         -1.8150     5.9430    -2.1660 ca         1 3SD      -0.130000
     33 C30         -2.8960     6.5570    -1.5470 ca         1 3SD      -0.131000
     34 C20         -5.0310    -2.0440    -1.2240 c3         1 3SD       0.153300
     35 C21         -6.2070    -2.1450    -0.2950 ca         1 3SD      -0.124300
     36 C22         -6.2860    -3.1660     0.6460 ca         1 3SD      -0.108500
     37 C24         -8.3800    -2.2950     1.4930 ca         1 3SD      -0.062300
     38 C26         -7.2240    -1.1950    -0.3280 ca         1 3SD      -0.108500
     39 N16         -4.0160    -1.1770    -0.6480 ns         1 3SD      -0.567900
     40 C23         -7.3570    -3.2390     1.5250 ca         1 3SD      -0.132500
     41 C27         -9.5550    -2.3940     2.4210 c3         1 3SD      -0.049800
     42 C25         -8.2940    -1.2700     0.5520 ca         1 3SD      -0.132500
     43 H4           3.9030     4.3230    -0.3420 ha         1 3SD       0.188000
     44 H6           6.3140     4.9910     2.5020 hc         1 3SD       0.064367
     45 H6A          7.3640     4.6290     1.1320 hc         1 3SD       0.064367
     46 H6B          5.9870     5.7150     0.9260 hc         1 3SD       0.064367
     47 H8           1.7140    -0.4450    -1.7380 h1         1 3SD       0.100700
     48 HN7          3.4020    -0.2320     0.6080 hn         1 3SD       0.341500
     49 H9           1.9650    -2.2290     0.7260 hc         1 3SD       0.076700
     50 H9A          1.1010    -2.6330    -0.7460 hc         1 3SD       0.076700
     51 HN34         3.8340    -3.2800     0.7510 hn         1 3SD       0.313500
     52 H36          5.1710    -4.1410    -1.7150 h1         1 3SD       0.056200
     53 H36A         6.0900    -3.0590    -0.6800 h1         1 3SD       0.056200
     54 H40          5.1360    -4.2190     2.1340 hc         1 3SD       0.036144
     55 H40A         6.4050    -5.4230     2.1940 hc         1 3SD       0.036144
     56 H40B         6.7760    -3.7880     1.6490 hc         1 3SD       0.036144
     57 H38          4.4380    -6.4190    -0.8630 hc         1 3SD       0.036144
     58 H38A         5.0230    -6.9890     0.6990 hc         1 3SD       0.036144
     59 H38B         3.7440    -5.7850     0.6280 hc         1 3SD       0.036144
     60 H39          7.8210    -4.7980    -0.4420 hc         1 3SD       0.036144
     61 H39A         7.3940    -6.4130     0.1250 hc         1 3SD       0.036144
     62 H39B         6.8780    -5.8770    -1.4740 hc         1 3SD       0.036144
     63 HN13        -0.4370    -0.3390    -1.9020 hn         1 3SD       0.341500
     64 H12         -2.1000     0.0470     0.4950 h1         1 3SD       0.083700
     65 H14         -3.4640     1.7080    -0.7760 hc         1 3SD       0.055200
     66 H14A        -2.2840     1.6860    -2.0760 hc         1 3SD       0.055200
     67 H17         -1.7180     2.5400     0.8060 hc         1 3SD       0.062700
     68 H17A        -0.5330     2.5300    -0.4890 hc         1 3SD       0.062700
     69 H28         -3.6300     4.1590     0.7290 ha         1 3SD       0.132000
     70 H32         -0.5420     4.2180    -2.2290 ha         1 3SD       0.132000
     71 H29         -4.3870     6.3820    -0.0130 ha         1 3SD       0.128000
     72 H31         -1.2980     6.4420    -2.9760 ha         1 3SD       0.128000
     73 H30         -3.2260     7.5350    -1.8720 ha         1 3SD       0.127000
     74 H20         -4.6110    -3.0350    -1.4100 h1         1 3SD       0.059200
     75 H20A        -5.3450    -1.6420    -2.1900 h1         1 3SD       0.059200
     76 H22         -5.5050    -3.9150     0.6950 ha         1 3SD       0.134000
     77 H26         -7.1840    -0.3880    -1.0510 ha         1 3SD       0.134000
     78 HN16        -4.1590    -0.8350     0.2880 hn         1 3SD       0.323500
     79 H23         -7.3950    -4.0460     2.2480 ha         1 3SD       0.132500
     80 H27        -10.3600    -2.9780     1.9700 hc         1 3SD       0.044700
     81 H27A        -9.2860    -2.8840     3.3560 hc         1 3SD       0.044700
     82 H27B        -9.9630    -1.4120     2.6570 hc         1 3SD       0.044700
     83 H25         -9.0740    -0.5190     0.5030 ha         1 3SD       0.132500
@<TRIPOS>BOND
     1     1     2 2   
     2     1     6 1   
     3     1    43 1   
     4     2     3 1   
     5     2     4 1   
     6     3    44 1   
     7     3    45 1   
     8     3    46 1   
     9     4     5 1   
    10     5     6 2   
    11     6     7 1   
    12     7     8 2   
    13     7    11 1   
    14     9    10 1   
    15     9    11 1   
    16     9    12 1   
    17     9    47 1   
    18    10    21 2   
    19    10    22 1   
    20    11    48 1   
    21    12    13 1   
    22    12    49 1   
    23    12    50 1   
    24    13    14 2   
    25    13    15 1   
    26    15    16 1   
    27    15    51 1   
    28    16    17 1   
    29    16    52 1   
    30    16    53 1   
    31    17    18 1   
    32    17    19 1   
    33    17    20 1   
    34    18    54 1   
    35    18    55 1   
    36    18    56 1   
    37    19    57 1   
    38    19    58 1   
    39    19    59 1   
    40    20    60 1   
    41    20    61 1   
    42    20    62 1   
    43    22    23 1   
    44    22    63 1   
    45    23    24 1   
    46    23    26 1   
    47    23    64 1   
    48    24    25 2   
    49    24    39 1   
    50    26    27 1   
    51    26    65 1   
    52    26    66 1   
    53    27    28 1   
    54    27    67 1   
    55    27    68 1   
    56    28    29 ar  
    57    28    30 ar  
    58    29    31 ar  
    59    29    69 1   
    60    30    32 ar  
    61    30    70 1   
    62    31    33 ar  
    63    31    71 1   
    64    32    33 ar  
    65    32    72 1   
    66    33    73 1   
    67    34    35 1   
    68    34    39 1   
    69    34    74 1   
    70    34    75 1   
    71    35    36 ar  
    72    35    38 ar  
    73    36    40 ar  
    74    36    76 1   
    75    37    40 ar  
    76    37    41 1   
    77    37    42 ar  
    78    38    42 ar  
    79    38    77 1   
    80    39    78 1   
    81    40    79 1   
    82    41    80 1   
    83    41    81 1   
    84    41    82 1   
    85    42    83 1   
@<TRIPOS>SUBSTRUCTURE
     1 3SD         1 TEMP              0 ****  ****    0 ROOT
