@<TRIPOS>MOLECULE
3SE
   39    41     1     0     0
SMALL
abcg2


@<TRIPOS>ATOM
      1 O           -3.6630    -1.8350    -1.3020 o          1 3SE      -0.599100
      2 C3          -3.3080    -1.2050    -0.3150 c          1 3SE       0.611100
      3 C2          -4.1330    -0.0390     0.2010 c3         1 3SE      -0.157400
      4 C1          -5.3880     0.1620    -0.6370 c3         1 3SE      -0.136400
      5 C           -6.2110     1.3280    -0.1660 c3         1 3SE       0.295000
      6 F2          -7.3140     1.4900    -0.9140 f          1 3SE      -0.118667
      7 F1          -6.6280     1.1910     1.1040 f          1 3SE      -0.118667
      8 F           -5.5390     2.4900    -0.2200 f          1 3SE      -0.118667
      9 N           -2.1840    -1.5100     0.3690 n          1 3SE      -0.410800
     10 C8          -1.2850    -2.5490    -0.1020 c6         1 3SE       0.096000
     11 C7           0.0350    -1.9500    -0.5690 c6         1 3SE      -0.097400
     12 C6           0.6630    -1.1230     0.5600 c6         1 3SE      -0.098000
     13 C5          -0.3330    -0.0710     1.0700 c6         1 3SE      -0.097400
     14 C4          -1.6370    -0.7460     1.4740 c6         1 3SE       0.096000
     15 C9           1.9470    -0.5030     0.1500 cc         1 3SE       0.480300
     16 N2           3.1250    -0.6820     0.6490 nd         1 3SE      -0.671000
     17 C10          3.8930     0.1470    -0.1100 cd         1 3SE       0.527000
     18 N1           3.2340     0.7950    -1.0220 nc         1 3SE      -0.376300
     19 O1           1.9520     0.3690    -0.8530 os         1 3SE      -0.078700
     20 C11          5.3230     0.3100     0.0750 cd         1 3SE       0.351400
     21 S            6.2440     1.3910    -0.9000 ss         1 3SE       0.064600
     22 C13          7.6390     0.9460    -0.0240 cd         1 3SE      -0.276000
     23 C12          7.3170     0.0270     0.9260 cc         1 3SE       0.271900
     24 N3           6.0050    -0.3270     0.9760 nc         1 3SE      -0.587000
     25 H2          -4.3970    -0.2160     1.2460 hc         1 3SE       0.073200
     26 H2A         -3.5180     0.8650     0.1860 hc         1 3SE       0.073200
     27 H1          -5.1300     0.3370    -1.6820 hc         1 3SE       0.095700
     28 H1A         -6.0190    -0.7270    -0.6050 hc         1 3SE       0.095700
     29 H8          -1.1060    -3.2520     0.7180 h1         1 3SE       0.062450
     30 H8A         -1.7570    -3.1030    -0.9080 h1         1 3SE       0.062450
     31 H7           0.7070    -2.7550    -0.8710 hc         1 3SE       0.065200
     32 H7A         -0.1440    -1.3230    -1.4470 hc         1 3SE       0.065200
     33 H6           0.9100    -1.7950     1.3870 hc         1 3SE       0.088700
     34 H5           0.0800     0.4550     1.9320 hc         1 3SE       0.065200
     35 H5A         -0.5330     0.6710     0.2930 hc         1 3SE       0.065200
     36 H4          -2.3420    -0.0010     1.8320 h1         1 3SE       0.062450
     37 H4A         -1.4540    -1.4290     2.3090 h1         1 3SE       0.062450
     38 H13          8.6050     1.3730    -0.2430 h4         1 3SE       0.165000
     39 H12          8.0190    -0.4170     1.6170 h4         1 3SE       0.048100
@<TRIPOS>BOND
     1     1     2 2   
     2     2     3 1   
     3     2     9 1   
     4     3     4 1   
     5     3    25 1   
     6     3    26 1   
     7     4     5 1   
     8     4    27 1   
     9     4    28 1   
    10     5     6 1   
    11     5     7 1   
    12     5     8 1   
    13     9    10 1   
    14     9    14 1   
    15    10    11 1   
    16    10    29 1   
    17    10    30 1   
    18    11    12 1   
    19    11    31 1   
    20    11    32 1   
    21    12    13 1   
    22    12    15 1   
    23    12    33 1   
    24    13    14 1   
    25    13    34 1   
    26    13    35 1   
    27    14    36 1   
    28    14    37 1   
    29    15    16 2   
    30    15    19 1   
    31    16    17 1   
    32    17    18 2   
    33    17    20 1   
    34    18    19 1   
    35    20    21 1   
    36    20    24 2   
    37    21    22 1   
    38    22    23 2   
    39    22    38 1   
    40    23    24 1   
    41    23    39 1   
@<TRIPOS>SUBSTRUCTURE
     1 3SE         1 TEMP              0 ****  ****    0 ROOT
