@<TRIPOS>MOLECULE
3SE
   39    41     1     0     0
SMALL
No Charge or Current Charge


@<TRIPOS>ATOM
      1 O           -3.6280    -1.7710    -1.4180 o          1 3SE      -0.599100
      2 C3          -3.3480    -1.1730    -0.3860 c          1 3SE       0.611100
      3 C2          -4.2570    -0.0400     0.1310 c3         1 3SE      -0.157400
      4 C1          -5.5510     0.2280    -0.6940 c3         1 3SE      -0.136400
      5 C           -6.4360     1.3670    -0.1440 c3         1 3SE       0.295000
      6 F2          -7.5320     1.5320    -0.9170 f          1 3SE      -0.118667
      7 F1          -6.8510     1.0990     1.1140 f          1 3SE      -0.118667
      8 F           -5.7630     2.5400    -0.1230 f          1 3SE      -0.118667
      9 N           -2.2000    -1.5310     0.3630 n          1 3SE      -0.410800
     10 C8          -1.2700    -2.6040    -0.0830 c6         1 3SE       0.096000
     11 C7           0.0860    -2.0000    -0.5190 c6         1 3SE      -0.097400
     12 C6           0.7070    -1.1420     0.6220 c6         1 3SE      -0.098000
     13 C5          -0.3170    -0.0780     1.1150 c6         1 3SE      -0.097400
     14 C4          -1.6590    -0.7410     1.5050 c6         1 3SE       0.096000
     15 C9           1.9980    -0.4920     0.1750 cc         1 3SE       0.480300
     16 N2           3.1990    -0.6730     0.6810 nd         1 3SE      -0.671000
     17 C10          3.9990     0.1550    -0.0940 cd         1 3SE       0.527000
     18 N1           3.3240     0.8130    -1.0310 nc         1 3SE      -0.376300
     19 O1           1.9890     0.3900    -0.8620 os         1 3SE      -0.078700
     20 C11          5.4400     0.3130     0.0740 cd         1 3SE       0.351400
     21 S            6.3580     1.3980    -0.9730 ss         1 3SE       0.064600
     22 C13          7.7900     0.9300    -0.0740 cd         1 3SE      -0.276000
     23 C12          7.4810     0.0260     0.9100 cc         1 3SE       0.271900
     24 N3           6.1600    -0.3290     1.0030 nc         1 3SE      -0.587000
     25 H2          -4.4840    -0.2490     1.1830 hc         1 3SE       0.073200
     26 H2A         -3.6420     0.8640     0.2140 hc         1 3SE       0.073200
     27 H1          -5.2760     0.4680    -1.7290 hc         1 3SE       0.095700
     28 H1A         -6.1500    -0.6910    -0.7340 hc         1 3SE       0.095700
     29 H8          -1.1100    -3.3060     0.7480 h1         1 3SE       0.062450
     30 H8A         -1.6990    -3.1830    -0.9130 h1         1 3SE       0.062450
     31 H7           0.7750    -2.8070    -0.8050 hc         1 3SE       0.065200
     32 H7A         -0.0670    -1.3850    -1.4170 hc         1 3SE       0.065200
     33 H6           0.9320    -1.8110     1.4640 hc         1 3SE       0.088700
     34 H5           0.0910     0.4670     1.9780 hc         1 3SE       0.065200
     35 H5A         -0.4990     0.6690     0.3290 hc         1 3SE       0.065200
     36 H4          -2.3600     0.0300     1.8480 h1         1 3SE       0.062450
     37 H4A         -1.4960    -1.4170     2.3570 h1         1 3SE       0.062450
     38 H13          8.7600     1.3420    -0.3190 h4         1 3SE       0.165000
     39 H12          8.1810    -0.4200     1.6050 h4         1 3SE       0.048100
@<TRIPOS>BOND
     1     1     2 2   
     2     2     3 1   
     3     2     9 1   
     4     3     4 1   
     5     3    25 1   
     6     3    26 1   
     7     4     5 1   
     8     4    27 1   
     9     4    28 1   
    10     5     6 1   
    11     5     7 1   
    12     5     8 1   
    13     9    10 1   
    14     9    14 1   
    15    10    11 1   
    16    10    29 1   
    17    10    30 1   
    18    11    12 1   
    19    11    31 1   
    20    11    32 1   
    21    12    13 1   
    22    12    15 1   
    23    12    33 1   
    24    13    14 1   
    25    13    34 1   
    26    13    35 1   
    27    14    36 1   
    28    14    37 1   
    29    15    16 2   
    30    15    19 1   
    31    16    17 1   
    32    17    18 2   
    33    17    20 1   
    34    18    19 1   
    35    20    21 1   
    36    20    24 2   
    37    21    22 1   
    38    22    23 2   
    39    22    38 1   
    40    23    24 1   
    41    23    39 1   
@<TRIPOS>SUBSTRUCTURE
     1 3SE         1 TEMP              0 ****  ****    0 ROOT
