@<TRIPOS>MOLECULE
3SF
   42    44     1     0     0
SMALL
No Charge or Current Charge


@<TRIPOS>ATOM
      1 C           -7.3000     1.3440     0.0810 c3         1 3SF       0.301000
      2 F           -7.9900     2.1600     0.9090 f          1 3SF      -0.117333
      3 N           -1.5360    -1.6240     0.2270 n          1 3SF      -0.410800
      4 O           -3.0950    -1.6010    -1.4570 o          1 3SF      -0.592100
      5 S            6.9280    -0.2650     0.7730 ss         1 3SF       0.080600
      6 C1          -5.9260     0.9880     0.6920 c3         1 3SF      -0.154400
      7 F1          -8.0460     0.2350    -0.1240 f          1 3SF      -0.117333
      8 N1           3.6990     1.3690    -1.0370 nc         1 3SF      -0.315300
      9 O1           2.4100     0.8200    -0.8660 os         1 3SF      -0.087700
     10 C2          -5.0560     0.0520    -0.1850 c3         1 3SF      -0.063400
     11 F2          -7.1580     1.9800    -1.1040 f          1 3SF      -0.117333
     12 N2           3.8090    -0.4410     0.3300 nd         1 3SF      -0.722000
     13 C3          -3.6900    -0.2770     0.4660 c3         1 3SF      -0.155400
     14 N3           6.5810     1.7970    -0.8250 nc         1 3SF      -0.598000
     15 C4          -2.7640    -1.2080    -0.3450 c          1 3SF       0.607100
     16 C5          -0.5870    -2.5080    -0.5010 c6         1 3SF       0.095500
     17 C6           0.6880    -1.7260    -0.8970 c6         1 3SF      -0.098900
     18 C7           1.3540    -1.0750     0.3500 c6         1 3SF      -0.099000
     19 C8           0.3150    -0.2160     1.1290 c6         1 3SF      -0.098900
     20 C9          -0.9470    -1.0460     1.4670 c6         1 3SF       0.095500
     21 C10          2.5610    -0.2520    -0.0410 cc         1 3SF       0.494300
     22 C11          4.4880     0.5860    -0.3090 cd         1 3SF       0.512000
     23 C12          5.9270     0.8050    -0.2080 cd         1 3SF       0.353400
     24 C13          7.9200     1.7350    -0.5330 cc         1 3SF       0.274900
     25 C14          8.3030     0.7140     0.2980 cd         1 3SF      -0.285000
     26 H1          -5.3760     1.9180     0.8810 hc         1 3SF       0.074700
     27 H1A         -6.0900     0.5160     1.6690 hc         1 3SF       0.074700
     28 H2          -5.5990    -0.8830    -0.3720 hc         1 3SF       0.074200
     29 H2A         -4.8850     0.5220    -1.1630 hc         1 3SF       0.074200
     30 H3          -3.1290     0.6370     0.6920 hc         1 3SF       0.058700
     31 H3A         -3.8150    -0.7120     1.4640 hc         1 3SF       0.058700
     32 H5          -0.3130    -3.3510     0.1500 h1         1 3SF       0.061950
     33 H5A         -1.0510    -2.9360    -1.4000 h1         1 3SF       0.061950
     34 H6           1.3970    -2.4020    -1.3950 hc         1 3SF       0.064950
     35 H6A          0.4210    -0.9540    -1.6320 hc         1 3SF       0.064950
     36 H7           1.6900    -1.8840     1.0150 hc         1 3SF       0.084700
     37 H8           0.7620     0.1700     2.0560 hc         1 3SF       0.064950
     38 H8A          0.0210     0.6590     0.5340 hc         1 3SF       0.064950
     39 H9          -1.6600    -0.4160     2.0140 h1         1 3SF       0.061950
     40 H9A         -0.6700    -1.8670     2.1440 h1         1 3SF       0.061950
     41 H13          8.5740     2.4810    -0.9670 h4         1 3SF       0.047100
     42 H14          9.3000     0.4830     0.6530 h4         1 3SF       0.164000
@<TRIPOS>BOND
     1     1     2 1   
     2     1     6 1   
     3     1     7 1   
     4     1    11 1   
     5     3    15 1   
     6     3    16 1   
     7     3    20 1   
     8     4    15 2   
     9     5    23 1   
    10     5    25 1   
    11     6    10 1   
    12     6    26 1   
    13     6    27 1   
    14     8     9 1   
    15     8    22 2   
    16     9    21 1   
    17    10    13 1   
    18    10    28 1   
    19    10    29 1   
    20    12    21 2   
    21    12    22 1   
    22    13    15 1   
    23    13    30 1   
    24    13    31 1   
    25    14    23 2   
    26    14    24 1   
    27    16    17 1   
    28    16    32 1   
    29    16    33 1   
    30    17    18 1   
    31    17    34 1   
    32    17    35 1   
    33    18    19 1   
    34    18    21 1   
    35    18    36 1   
    36    19    20 1   
    37    19    37 1   
    38    19    38 1   
    39    20    39 1   
    40    20    40 1   
    41    22    23 1   
    42    24    25 2   
    43    24    41 1   
    44    25    42 1   
@<TRIPOS>SUBSTRUCTURE
     1 3SF         1 TEMP              0 ****  ****    0 ROOT
