@<TRIPOS>MOLECULE
3SF
   42    44     1     0     0
SMALL
bcc


@<TRIPOS>ATOM
      1 C           -7.0740     1.2530    -0.0400 c3         1 3SF       0.664900
      2 F           -7.8360     2.0360     0.7400 f          1 3SF      -0.238633
      3 N           -1.5190    -1.6170     0.2880 n          1 3SF      -0.477800
      4 O           -2.9970    -1.6090    -1.4130 o          1 3SF      -0.592100
      5 S            6.7500    -0.4350     0.4250 ss         1 3SF      -0.064300
      6 C1          -5.7680     0.9040     0.6190 c3         1 3SF      -0.154400
      7 F1          -7.8100     0.1670    -0.3260 f          1 3SF      -0.238633
      8 N1           3.5280     1.5750    -0.7490 nc         1 3SF      -0.315300
      9 O1           2.2940     1.0390    -0.5190 os         1 3SF      -0.132100
     10 C2          -4.8810     0.0050    -0.2350 c3         1 3SF      -0.063400
     11 F2          -6.9060     1.9130    -1.1970 f          1 3SF      -0.238633
     12 N2           3.7080    -0.3810     0.3170 nd         1 3SF      -0.722000
     13 C3          -3.5830    -0.3030     0.4970 c3         1 3SF      -0.155400
     14 N3           6.4380     1.8140    -0.7480 nc         1 3SF      -0.598000
     15 C4          -2.6760    -1.2260    -0.2970 c          1 3SF       0.674100
     16 C5          -0.5500    -2.4040    -0.4520 c6         1 3SF       0.095500
     17 C6           0.6620    -1.5600    -0.8190 c6         1 3SF      -0.098900
     18 C7           1.2750    -0.9420     0.4480 c6         1 3SF      -0.099000
     19 C8           0.2130    -0.1660     1.2360 c6         1 3SF      -0.098900
     20 C9          -0.9810    -1.0690     1.5200 c6         1 3SF       0.095500
     21 C10          2.4610    -0.1170     0.1120 cc         1 3SF       0.538700
     22 C11          4.3330     0.6950    -0.2360 cd         1 3SF       0.512000
     23 C12          5.7780     0.8160    -0.2480 cd         1 3SF       0.353400
     24 C13          7.7760     1.6190    -0.6140 cc         1 3SF       0.340200
     25 C14          8.1390     0.4570    -0.0030 cd         1 3SF      -0.223400
     26 H1          -5.2520     1.8390     0.8520 hc         1 3SF       0.074700
     27 H1A         -5.9930     0.4220     1.5730 hc         1 3SF       0.074700
     28 H2          -5.4010    -0.9260    -0.4660 hc         1 3SF       0.074200
     29 H2A         -4.6570     0.4910    -1.1850 hc         1 3SF       0.074200
     30 H3          -3.0540     0.6300     0.7170 hc         1 3SF       0.058700
     31 H3A         -3.8030    -0.7540     1.4700 hc         1 3SF       0.058700
     32 H5          -0.2390    -3.2510     0.1680 h1         1 3SF       0.061950
     33 H5A         -1.0140    -2.8100    -1.3460 h1         1 3SF       0.061950
     34 H6           1.3990    -2.1830    -1.3290 hc         1 3SF       0.064950
     35 H6A          0.3610    -0.7740    -1.5170 hc         1 3SF       0.064950
     36 H7           1.6490    -1.7570     1.0750 hc         1 3SF       0.084700
     37 H8           0.6280     0.1900     2.1810 hc         1 3SF       0.064950
     38 H8A         -0.1200     0.7100     0.6730 hc         1 3SF       0.064950
     39 H9          -1.7410    -0.5230     2.0710 h1         1 3SF       0.061950
     40 H9A         -0.6690    -1.9000     2.1600 h1         1 3SF       0.061950
     41 H13          8.4680     2.3620    -0.9810 h4         1 3SF       0.047100
     42 H14          9.1320     0.0960     0.2100 h4         1 3SF       0.182000
@<TRIPOS>BOND
     1     1     2 1   
     2     1     6 1   
     3     1     7 1   
     4     1    11 1   
     5     3    15 1   
     6     3    16 1   
     7     3    20 1   
     8     4    15 2   
     9     5    23 1   
    10     5    25 1   
    11     6    10 1   
    12     6    26 1   
    13     6    27 1   
    14     8     9 1   
    15     8    22 2   
    16     9    21 1   
    17    10    13 1   
    18    10    28 1   
    19    10    29 1   
    20    12    21 2   
    21    12    22 1   
    22    13    15 1   
    23    13    30 1   
    24    13    31 1   
    25    14    23 2   
    26    14    24 1   
    27    16    17 1   
    28    16    32 1   
    29    16    33 1   
    30    17    18 1   
    31    17    34 1   
    32    17    35 1   
    33    18    19 1   
    34    18    21 1   
    35    18    36 1   
    36    19    20 1   
    37    19    37 1   
    38    19    38 1   
    39    20    39 1   
    40    20    40 1   
    41    22    23 1   
    42    24    25 2   
    43    24    41 1   
    44    25    42 1   
@<TRIPOS>SUBSTRUCTURE
     1 3SF         1 TEMP              0 ****  ****    0 ROOT
