@<TRIPOS>MOLECULE
3SG
   60    63     1     0     0
SMALL
abcg2


@<TRIPOS>ATOM
      1 C2           8.7300     0.3380     0.1990 ca         1 3SG       0.044000
      2 C3           9.9630     0.7540    -0.2440 ca         1 3SG       0.330900
      3 C5           9.0100     1.7910    -2.0170 ca         1 3SG       0.345900
      4 C6           7.7270     1.4150    -1.6460 ca         1 3SG      -0.172000
      5 C7           7.5580     0.6560    -0.4880 ca         1 3SG      -0.010000
      6 C11          4.0060    -0.1410     0.3940 ca         1 3SG      -0.158600
      7 C12          4.1110    -0.2260     1.7770 ca         1 3SG      -0.080000
      8 C17          1.7330    -0.9790     0.5280 cp         1 3SG      -0.022000
      9 C18          2.8070    -0.5070    -0.2150 ca         1 3SG      -0.047000
     10 C19          0.4870    -1.3490    -0.1840 cp         1 3SG      -0.032000
     11 C21         -0.6710    -2.7150    -1.8020 ca         1 3SG      -0.117000
     12 C23         -1.8610    -0.9800    -0.6380 ca         1 3SG      -0.158600
     13 C24         -0.6870    -0.6380     0.0270 ca         1 3SG      -0.046000
     14 C30         -7.2130     1.3770    -0.0170 ca         1 3SG      -0.132600
     15 C31         -8.1990     0.4230     0.2090 ca         1 3SG      -0.056000
     16 C32         -7.8660    -0.9210     0.1890 ca         1 3SG      -0.144000
     17 C33         -6.5590    -1.2830    -0.0430 ca         1 3SG       0.138000
     18 C35         -7.5050     2.8340    -0.0110 c          1 3SG       0.605700
     19 C38         -9.1720     4.4650     0.3010 c3         1 3SG       0.153900
     20 F1           8.6390    -0.3900     1.3230 f          1 3SG      -0.182000
     21 N4          10.1100     1.4790    -1.3470 nb         1 3SG      -0.663000
     22 N8           6.3590     0.2100     0.0370 ns         1 3SG      -0.142000
     23 C9           5.1020     0.3750    -0.4730 c          1 3SG       0.627700
     24 O10          4.8800     0.8910    -1.5500 o          1 3SG      -0.563100
     25 C13          3.0400    -0.6940     2.5220 ca         1 3SG      -0.120000
     26 C14          1.8480    -1.0820     1.9230 ca         1 3SG      -0.038300
     27 N16          0.6250    -3.0950     2.4860 n8         1 3SG      -0.992200
     28 C20          0.4860    -2.3890    -1.1110 ca         1 3SG      -0.060000
     29 C22         -1.8470    -2.0220    -1.5630 ca         1 3SG      -0.082000
     30 C25         -3.0830    -0.1760    -0.3400 c          1 3SG       0.621700
     31 N27         -4.2590    -0.8400    -0.5140 ns         1 3SG      -0.144000
     32 C28         -5.5430    -0.3540    -0.2720 ca         1 3SG      -0.068000
     33 C29         -5.8970     0.9900    -0.2630 ca         1 3SG      -0.056000
     34 O36         -6.6780     3.6870    -0.2240 o          1 3SG      -0.477000
     35 O37         -8.7730     3.0950     0.2590 os         1 3SG      -0.443100
     36 H1          10.8530     0.4910     0.3180 h4         1 3SG       0.035100
     37 H2           9.1410     2.3820    -2.9160 h4         1 3SG       0.026100
     38 H3           6.8920     1.7140    -2.2550 ha         1 3SG       0.160000
     39 H4           5.0050     0.0910     2.2990 ha         1 3SG       0.117000
     40 H5           0.9680    -1.4480     3.8240 h1         1 3SG       0.041200
     41 H6          -0.2000    -1.1990     2.5470 h1         1 3SG       0.041200
     42 H7           2.7070    -0.4210    -1.2890 ha         1 3SG       0.141000
     43 H8          -0.6570    -3.5150    -2.5300 ha         1 3SG       0.120000
     44 H9          -0.6930     0.1950     0.7190 ha         1 3SG       0.136000
     45 H10         -9.2240     0.7060     0.4000 ha         1 3SG       0.137000
     46 H11         -8.6130    -1.6860     0.3580 ha         1 3SG       0.137000
     47 H12        -10.2320     4.4590     0.5360 h1         1 3SG       0.050033
     48 H13         -8.6330     5.0120     1.0740 h1         1 3SG       0.050033
     49 H14         -9.0170     4.9530    -0.6610 h1         1 3SG       0.050033
     50 H15          6.4360    -0.3400     0.8790 hn         1 3SG       0.169000
     51 H16          3.1380    -0.7620     3.5990 ha         1 3SG       0.117000
     52 H17          1.4300    -3.5890     2.8530 hn         1 3SG       0.397500
     53 H18         -0.1780    -3.4620     2.9790 hn         1 3SG       0.397500
     54 H20          1.3960    -2.9470    -1.2900 ha         1 3SG       0.121000
     55 H21         -2.7330    -2.2840    -2.1290 ha         1 3SG       0.115000
     56 H22         -4.1950    -1.8290    -0.6980 hn         1 3SG       0.166000
     57 H23         -5.1520     1.7460    -0.4480 ha         1 3SG       0.170000
     58 C15          0.7540    -1.6760     2.7720 c3         1 3SG       0.190100
     59 F34         -6.2340    -2.5830    -0.0570 f          1 3SG      -0.182000
     60 O26         -3.0120     0.9740     0.0510 o          1 3SG      -0.568100
@<TRIPOS>BOND
     1     1     2 ar  
     2     1     5 ar  
     3     1    20 1   
     4     2    21 ar  
     5     2    36 1   
     6     3     4 ar  
     7     3    21 ar  
     8     3    37 1   
     9     4     5 ar  
    10     4    38 1   
    11     5    22 1   
    12     6     7 ar  
    13     6     9 ar  
    14     6    23 1   
    15     7    25 ar  
    16     7    39 1   
    17     8     9 ar  
    18     8    10 1   
    19     8    26 ar  
    20     9    42 1   
    21    10    13 ar  
    22    10    28 ar  
    23    11    28 ar  
    24    11    29 ar  
    25    11    43 1   
    26    12    13 ar  
    27    12    29 ar  
    28    12    30 1   
    29    13    44 1   
    30    14    15 ar  
    31    14    18 1   
    32    14    33 ar  
    33    15    16 ar  
    34    15    45 1   
    35    16    17 ar  
    36    16    46 1   
    37    17    32 ar  
    38    17    59 1   
    39    18    34 2   
    40    18    35 1   
    41    19    35 1   
    42    19    47 1   
    43    19    48 1   
    44    19    49 1   
    45    22    23 1   
    46    22    50 1   
    47    23    24 2   
    48    25    26 ar  
    49    25    51 1   
    50    26    58 1   
    51    27    52 1   
    52    27    53 1   
    53    27    58 1   
    54    28    54 1   
    55    29    55 1   
    56    30    31 1   
    57    30    60 2   
    58    31    32 1   
    59    31    56 1   
    60    32    33 ar  
    61    33    57 1   
    62    40    58 1   
    63    41    58 1   
@<TRIPOS>SUBSTRUCTURE
     1 3SG         1 TEMP              0 ****  ****    0 ROOT
