@<TRIPOS>MOLECULE
3SG
   60    63     1     0     0
SMALL
No Charge or Current Charge


@<TRIPOS>ATOM
      1 C2           8.7060     1.0680     0.1750 ca         1 3SG       0.044000
      2 C3           9.9400     1.4890    -0.3630 ca         1 3SG       0.330900
      3 C5           9.1470     1.2980    -2.5300 ca         1 3SG       0.345900
      4 C6           7.8850     0.8700    -2.0780 ca         1 3SG      -0.172000
      5 C7           7.6430     0.7470    -0.6920 ca         1 3SG      -0.010000
      6 C11          4.0980    -0.4450     0.2740 ca         1 3SG      -0.158600
      7 C12          4.2870    -0.4280     1.6760 ca         1 3SG      -0.080000
      8 C17          1.7720    -1.2090     0.6330 cp         1 3SG      -0.022000
      9 C18          2.8360    -0.8390    -0.2230 ca         1 3SG      -0.047000
     10 C19          0.4660    -1.5960     0.0250 cp         1 3SG      -0.032000
     11 C21         -0.8520    -3.0980    -1.3860 ca         1 3SG      -0.117000
     12 C23         -1.9320    -1.1470    -0.3720 ca         1 3SG      -0.158600
     13 C24         -0.6910    -0.8040     0.2160 ca         1 3SG      -0.046000
     14 C30         -7.3420     1.5440    -0.1300 ca         1 3SG      -0.132600
     15 C31         -8.3010     0.8360    -0.8890 ca         1 3SG      -0.056000
     16 C32         -7.9370    -0.3340    -1.5730 ca         1 3SG      -0.144000
     17 C33         -6.6200    -0.8060    -1.5090 ca         1 3SG       0.138000
     18 C35         -7.7100     2.8080     0.6170 c          1 3SG       0.605700
     19 C38         -9.4800     4.3610     1.1500 c3         1 3SG       0.153900
     20 F1           8.5480     0.9730     1.5170 f          1 3SG      -0.182000
     21 N4          10.1660     1.6050    -1.6950 nb         1 3SG      -0.663000
     22 N8           6.4050     0.3240    -0.1290 ns         1 3SG      -0.142000
     23 C9           5.1960    -0.0540    -0.7000 c          1 3SG       0.627700
     24 O10          5.0060    -0.0780    -1.9110 o          1 3SG      -0.563100
     25 C13          3.2450    -0.8030     2.5400 ca         1 3SG      -0.120000
     26 C14          1.9890    -1.1990     2.0400 ca         1 3SG      -0.038300
     27 N16          1.1640    -2.9910     3.5660 n8         1 3SG      -0.992200
     28 C20          0.3690    -2.7420    -0.7940 ca         1 3SG      -0.060000
     29 C22         -1.9970    -2.3110    -1.1770 ca         1 3SG      -0.082000
     30 C25         -3.1420    -0.2620    -0.1250 c          1 3SG       0.621700
     31 N27         -4.3210    -0.6640    -0.7430 ns         1 3SG      -0.144000
     32 C28         -5.6410    -0.1220    -0.7610 ca         1 3SG      -0.068000
     33 C29         -6.0140     1.0570    -0.0730 ca         1 3SG      -0.056000
     34 O36         -6.9030     3.4450     1.2820 o          1 3SG      -0.477000
     35 O37         -9.0270     3.1700     0.4780 os         1 3SG      -0.443100
     36 H1          10.7720     1.7400     0.2940 h4         1 3SG       0.035100
     37 H2           9.3470     1.3970    -3.5960 h4         1 3SG       0.026100
     38 H3           7.1280     0.6460    -2.8210 ha         1 3SG       0.160000
     39 H4           5.2350    -0.1330     2.1190 ha         1 3SG       0.117000
     40 H5           0.9220    -0.9260     3.8940 h1         1 3SG       0.041200
     41 H6          -0.0810    -1.6010     2.6020 h1         1 3SG       0.041200
     42 H7           2.6600    -0.8550    -1.2970 ha         1 3SG       0.141000
     43 H8          -0.9110    -3.9870    -2.0090 ha         1 3SG       0.120000
     44 H9          -0.6100     0.0900     0.8300 ha         1 3SG       0.136000
     45 H10         -9.3310     1.1830    -0.9540 ha         1 3SG       0.137000
     46 H11         -8.6780    -0.8770    -2.1560 ha         1 3SG       0.137000
     47 H12        -10.5460     4.5280     0.9520 h1         1 3SG       0.050033
     48 H13         -9.3460     4.2730     2.2360 h1         1 3SG       0.050033
     49 H14         -8.9270     5.2420     0.8010 h1         1 3SG       0.050033
     50 H15          6.4120     0.2940     0.8810 hn         1 3SG       0.169000
     51 H16          3.4190    -0.7900     3.6140 ha         1 3SG       0.117000
     52 H17          2.0680    -3.0030     4.0520 hn         1 3SG       0.397500
     53 H18          0.4840    -3.1930     4.3090 hn         1 3SG       0.397500
     54 H20          1.2490    -3.3590    -0.9630 ha         1 3SG       0.121000
     55 H21         -2.9230    -2.6230    -1.6540 ha         1 3SG       0.115000
     56 H22         -4.2280    -1.5090    -1.2900 hn         1 3SG       0.166000
     57 H23         -5.2860     1.6100     0.5130 ha         1 3SG       0.170000
     58 C15          0.9200    -1.6280     3.0480 c3         1 3SG       0.190100
     59 F34         -6.2940    -1.9360    -2.1770 f          1 3SG      -0.182000
     60 O26         -3.0600     0.7380     0.5800 o          1 3SG      -0.568100
@<TRIPOS>BOND
     1     1     2 ar  
     2     1     5 ar  
     3     1    20 1   
     4     2    21 ar  
     5     2    36 1   
     6     3     4 ar  
     7     3    21 ar  
     8     3    37 1   
     9     4     5 ar  
    10     4    38 1   
    11     5    22 1   
    12     6     7 ar  
    13     6     9 ar  
    14     6    23 1   
    15     7    25 ar  
    16     7    39 1   
    17     8     9 ar  
    18     8    10 1   
    19     8    26 ar  
    20     9    42 1   
    21    10    13 ar  
    22    10    28 ar  
    23    11    28 ar  
    24    11    29 ar  
    25    11    43 1   
    26    12    13 ar  
    27    12    29 ar  
    28    12    30 1   
    29    13    44 1   
    30    14    15 ar  
    31    14    18 1   
    32    14    33 ar  
    33    15    16 ar  
    34    15    45 1   
    35    16    17 ar  
    36    16    46 1   
    37    17    32 ar  
    38    17    59 1   
    39    18    34 2   
    40    18    35 1   
    41    19    35 1   
    42    19    47 1   
    43    19    48 1   
    44    19    49 1   
    45    22    23 1   
    46    22    50 1   
    47    23    24 2   
    48    25    26 ar  
    49    25    51 1   
    50    26    58 1   
    51    27    52 1   
    52    27    53 1   
    53    27    58 1   
    54    28    54 1   
    55    29    55 1   
    56    30    31 1   
    57    30    60 2   
    58    31    32 1   
    59    31    56 1   
    60    32    33 ar  
    61    33    57 1   
    62    40    58 1   
    63    41    58 1   
@<TRIPOS>SUBSTRUCTURE
     1 3SG         1 TEMP              0 ****  ****    0 ROOT
