@<TRIPOS>MOLECULE
3SH
   42    44     1     0     0
SMALL
abcg2


@<TRIPOS>ATOM
      1 C1          -2.4840    -1.3890     0.1290 ca         1 3SH       0.292000
      2 C2          -3.3700    -2.0560     0.9690 ca         1 3SH      -0.136000
      3 C3          -4.6710    -1.6010     1.0990 ca         1 3SH      -0.080000
      4 C4          -5.1360    -0.4730     0.4250 ca         1 3SH      -0.075300
      5 C5          -4.2270     0.1620    -0.4170 ca         1 3SH       0.140000
      6 C6          -2.9260    -0.2830    -0.5890 ca         1 3SH      -0.131000
      7 C7          -6.5400     0.0140     0.6040 c3         1 3SH      -0.045800
      8 N9          -1.1750    -1.8680    -0.0040 nu         1 3SH      -0.932900
      9 C10         -0.0420    -1.1410     0.0100 cc         1 3SH       0.701300
     10 S11         -0.0130     0.5730     0.2470 ss         1 3SH       0.014600
     11 C12          1.7260     0.5090     0.1790 cc         1 3SH      -0.340600
     12 C13          2.1330    -0.7910     0.0020 cd         1 3SH       0.473500
     13 N14          1.1330    -1.7010    -0.1040 nd         1 3SH      -0.742000
     14 C15          3.5140    -1.2920    -0.0900 ca         1 3SH      -0.138500
     15 C16          4.4920    -0.9140     0.8270 ca         1 3SH      -0.064000
     16 C17          5.7720    -1.4400     0.7400 ca         1 3SH      -0.121000
     17 C18          6.0910    -2.3430    -0.2670 ca         1 3SH      -0.095000
     18 C19          5.1180    -2.7290    -1.1790 ca         1 3SH      -0.121000
     19 C20          3.8340    -2.2160    -1.0850 ca         1 3SH      -0.064000
     20 C21          2.4870     1.7510     0.1640 c          1 3SH       0.648700
     21 O22          3.6790     1.8470    -0.0040 o          1 3SH      -0.478000
     22 O23          1.6750     2.7890     0.3430 os         1 3SH      -0.460100
     23 C24          2.2410     4.1090     0.3180 c3         1 3SH       0.171600
     24 C25          1.1110     5.0960     0.4770 c3         1 3SH      -0.098100
     25 CL8         -4.7330     1.5530    -1.3190 cl         1 3SH      -0.195000
     26 H1          -3.0410    -2.9240     1.5250 ha         1 3SH       0.125000
     27 H2          -5.3460    -2.1270     1.7620 ha         1 3SH       0.121000
     28 H3          -2.2810     0.2140    -1.3020 ha         1 3SH       0.145000
     29 H4          -6.5630     1.0420     0.9700 hc         1 3SH       0.051367
     30 H5          -7.0950    -0.0040    -0.3350 hc         1 3SH       0.051367
     31 H6          -7.0720    -0.6090     1.3200 hc         1 3SH       0.051367
     32 H7          -1.0360    -2.8670     0.0680 hn         1 3SH       0.516000
     33 H8           4.2520    -0.2270     1.6270 ha         1 3SH       0.121000
     34 H9           6.5210    -1.1480     1.4640 ha         1 3SH       0.113000
     35 H10          7.0920    -2.7490    -0.3350 ha         1 3SH       0.111000
     36 H11          5.3570    -3.4340    -1.9650 ha         1 3SH       0.113000
     37 H12          3.0760    -2.5270    -1.7920 ha         1 3SH       0.121000
     38 H13          2.9680     4.2110     1.1260 h1         1 3SH       0.048700
     39 H14          2.7630     4.2660    -0.6280 h1         1 3SH       0.048700
     40 H15          0.3900     5.0130    -0.3360 hc         1 3SH       0.046700
     41 H16          0.5880     4.9610     1.4240 hc         1 3SH       0.046700
     42 H17          1.5180     6.1070     0.4620 hc         1 3SH       0.046700
@<TRIPOS>BOND
     1     1     2 ar  
     2     1     6 ar  
     3     1     8 1   
     4     2     3 ar  
     5     2    26 1   
     6     3     4 ar  
     7     3    27 1   
     8     4     5 ar  
     9     4     7 1   
    10     5     6 ar  
    11     5    25 1   
    12     6    28 1   
    13     7    29 1   
    14     7    30 1   
    15     7    31 1   
    16     8     9 1   
    17     8    32 1   
    18     9    10 1   
    19     9    13 2   
    20    10    11 1   
    21    11    12 2   
    22    11    20 1   
    23    12    13 1   
    24    12    14 1   
    25    14    15 ar  
    26    14    19 ar  
    27    15    16 ar  
    28    15    33 1   
    29    16    17 ar  
    30    16    34 1   
    31    17    18 ar  
    32    17    35 1   
    33    18    19 ar  
    34    18    36 1   
    35    19    37 1   
    36    20    21 2   
    37    20    22 1   
    38    22    23 1   
    39    23    24 1   
    40    23    38 1   
    41    23    39 1   
    42    24    40 1   
    43    24    41 1   
    44    24    42 1   
@<TRIPOS>SUBSTRUCTURE
     1 3SH         1 TEMP              0 ****  ****    0 ROOT
