@<TRIPOS>MOLECULE
3SH
   42    44     1     0     0
SMALL
No Charge or Current Charge


@<TRIPOS>ATOM
      1 C1          -2.5830    -1.2910    -0.0480 ca         1 3SH       0.292000
      2 C2          -3.3740    -2.2480     0.6040 ca         1 3SH      -0.136000
      3 C3          -4.7370    -2.0010     0.8490 ca         1 3SH      -0.080000
      4 C4          -5.3250    -0.7900     0.4350 ca         1 3SH      -0.075300
      5 C5          -4.5270     0.1650    -0.2340 ca         1 3SH       0.140000
      6 C6          -3.1670    -0.0880    -0.4750 ca         1 3SH      -0.131000
      7 C7          -6.8030    -0.5320     0.7050 c3         1 3SH      -0.045800
      8 N9          -1.2400    -1.5640    -0.2820 nu         1 3SH      -0.932900
      9 C10         -0.1150    -0.8200    -0.1750 cc         1 3SH       0.701300
     10 S11         -0.0140     0.8550     0.2830 ss         1 3SH       0.014600
     11 C12          1.7120     0.7010     0.0920 cc         1 3SH      -0.340600
     12 C13          2.0800    -0.6130    -0.1520 cd         1 3SH       0.473500
     13 N14          1.0020    -1.4800    -0.3030 nd         1 3SH      -0.742000
     14 C15          3.4390    -1.2140    -0.1220 ca         1 3SH      -0.138500
     15 C16          4.4680    -0.6920     0.6980 ca         1 3SH      -0.064000
     16 C17          5.7270    -1.3150     0.7630 ca         1 3SH      -0.121000
     17 C18          5.9730    -2.4870     0.0330 ca         1 3SH      -0.095000
     18 C19          4.9500    -3.0480    -0.7440 ca         1 3SH      -0.121000
     19 C20          3.6900    -2.4280    -0.8070 ca         1 3SH      -0.064000
     20 C21          2.5830     1.8830    -0.0050 c          1 3SH       0.648700
     21 O22          3.7310     1.8660    -0.4210 o          1 3SH      -0.478000
     22 O23          1.9290     3.0460     0.3040 os         1 3SH      -0.460100
     23 C24          2.6480     4.2850     0.1910 c3         1 3SH       0.171600
     24 C25          1.6870     5.4130     0.5980 c3         1 3SH      -0.098100
     25 Cl8         -5.2130     1.6920    -0.7890 cl         1 3SH      -0.195000
     26 H1          -2.9330    -3.1860     0.9310 ha         1 3SH       0.125000
     27 H2          -5.3330    -2.7530     1.3620 ha         1 3SH       0.121000
     28 H3          -2.5780     0.6490    -1.0090 ha         1 3SH       0.145000
     29 H4          -6.9410     0.3650     1.3210 hc         1 3SH       0.051367
     30 H5          -7.3550    -0.3870    -0.2310 hc         1 3SH       0.051367
     31 H6          -7.2730    -1.3690     1.2360 hc         1 3SH       0.051367
     32 H7          -0.9790    -2.5450    -0.2840 hn         1 3SH       0.516000
     33 H8           4.2910     0.1790     1.3230 ha         1 3SH       0.121000
     34 H9           6.5070    -0.8940     1.3930 ha         1 3SH       0.113000
     35 H10          6.9470    -2.9690     0.0860 ha         1 3SH       0.111000
     36 H11          5.1300    -3.9680    -1.2960 ha         1 3SH       0.113000
     37 H12          2.9120    -2.8870    -1.4140 ha         1 3SH       0.121000
     38 H13          3.5240     4.2920     0.8550 h1         1 3SH       0.048700
     39 H14          2.9890     4.4490    -0.8400 h1         1 3SH       0.048700
     40 H15          0.8120     5.4320    -0.0610 hc         1 3SH       0.046700
     41 H16          1.3460     5.2760     1.6310 hc         1 3SH       0.046700
     42 H17          2.1910     6.3840     0.5290 hc         1 3SH       0.046700
@<TRIPOS>BOND
     1     1     2 ar  
     2     1     6 ar  
     3     1     8 1   
     4     2     3 ar  
     5     2    26 1   
     6     3     4 ar  
     7     3    27 1   
     8     4     5 ar  
     9     4     7 1   
    10     5     6 ar  
    11     5    25 1   
    12     6    28 1   
    13     7    29 1   
    14     7    30 1   
    15     7    31 1   
    16     8     9 1   
    17     8    32 1   
    18     9    10 1   
    19     9    13 2   
    20    10    11 1   
    21    11    12 2   
    22    11    20 1   
    23    12    13 1   
    24    12    14 1   
    25    14    15 ar  
    26    14    19 ar  
    27    15    16 ar  
    28    15    33 1   
    29    16    17 ar  
    30    16    34 1   
    31    17    18 ar  
    32    17    35 1   
    33    18    19 ar  
    34    18    36 1   
    35    19    37 1   
    36    20    21 2   
    37    20    22 1   
    38    22    23 1   
    39    23    24 1   
    40    23    38 1   
    41    23    39 1   
    42    24    40 1   
    43    24    41 1   
    44    24    42 1   
@<TRIPOS>SUBSTRUCTURE
     1 3SH         1 TEMP              0 ****  ****    0 ROOT
