@<TRIPOS>MOLECULE
3SJ
   54    58     1     0     0
SMALL
abcg2


@<TRIPOS>ATOM
      1 C31          8.4900     1.2590     0.1830 ca         1 3SJ      -0.109000
      2 C30          7.6350     1.8550     1.1330 ca         1 3SJ      -0.102000
      3 C32          7.9940     0.3560    -0.7200 ca         1 3SJ      -0.090000
      4 C25          6.0450    -0.9080    -1.6010 ca         1 3SJ      -0.062000
      5 C19          1.7600    -1.4980    -1.3820 ca         1 3SJ      -0.041500
      6 C20          1.7630    -0.3150     0.6920 ca         1 3SJ      -0.041500
      7 C29          6.3020     1.5440     1.1660 ca         1 3SJ      -0.083000
      8 C21          0.3990    -1.7400    -1.2560 ca         1 3SJ      -0.183500
      9 C17          0.4120    -0.5460     0.8330 ca         1 3SJ      -0.183500
     10 C26          4.7120    -1.1820    -1.5220 ca         1 3SJ      -0.158000
     11 C4          -5.7680    -1.2020     0.2020 cc         1 3SJ      -0.174000
     12 C27          6.6240     0.0180    -0.7060 ca         1 3SJ      -0.088000
     13 C18          2.4720    -0.7880    -0.4190 cp         1 3SJ      -0.193500
     14 C3          -4.4920    -0.7490    -0.0620 cd         1 3SJ      -0.118800
     15 C28          5.7630     0.6170     0.2440 ca         1 3SJ       0.282000
     16 C16         -0.2860    -1.2660    -0.1410 ca         1 3SJ       0.157100
     17 C22          3.9210    -0.5240    -0.5410 cp         1 3SJ       0.440500
     18 C2          -3.8140    -1.9070    -0.5030 cd         1 3SJ       0.252300
     19 C12         -3.1030     1.2160    -0.8290 cd         1 3SJ      -0.071000
     20 C11         -2.6530     2.4840    -0.6520 cc         1 3SJ      -0.319200
     21 C9          -4.3310     1.3630     1.1870 cc         1 3SJ      -0.030400
     22 C8          -3.9780     0.6090     0.1090 cd         1 3SJ      -0.090200
     23 C10         -3.0420     3.2760     0.4810 c          1 3SJ       0.547200
     24 C1          -2.3940    -2.0430    -0.9260 c3         1 3SJ       0.139300
     25 N24          4.4430     0.3350     0.3010 nb         1 3SJ      -0.679000
     26 N6          -4.6130    -2.9590    -0.4980 nc         1 3SJ      -0.513800
     27 N5          -5.7880    -2.5160    -0.0720 na         1 3SJ       0.141800
     28 N13         -3.8960     2.6340     1.3680 n          1 3SJ      -0.267000
     29 O23         -2.6800     4.4310     0.6980 o          1 3SJ      -0.563000
     30 O15         -1.5970    -1.4520     0.0860 os         1 3SJ      -0.336100
     31 H1           9.5400     1.5190     0.1710 ha         1 3SJ       0.114000
     32 H2           8.0410     2.5660     1.8410 ha         1 3SJ       0.115000
     33 H3           8.6450    -0.1080    -1.4510 ha         1 3SJ       0.114000
     34 H4           6.6650    -1.4000    -2.3390 ha         1 3SJ       0.117000
     35 H5           2.2510    -1.8770    -2.2680 ha         1 3SJ       0.124000
     36 H6           2.2860     0.2420     1.4560 ha         1 3SJ       0.124000
     37 H7           5.6380     1.9980     1.8910 ha         1 3SJ       0.130000
     38 H8          -0.1010    -2.3010    -2.0330 ha         1 3SJ       0.123500
     39 H9          -0.1190    -0.1710     1.6990 ha         1 3SJ       0.123500
     40 H10          4.2740    -1.9020    -2.1970 ha         1 3SJ       0.122000
     41 H11         -6.6460    -0.6800     0.5480 h4         1 3SJ       0.154000
     42 H12         -2.7990     0.6690    -1.7130 ha         1 3SJ       0.185000
     43 H13         -1.9910     2.9450    -1.3720 ha         1 3SJ       0.210000
     44 H14         -4.9750     0.9760     1.9650 h4         1 3SJ       0.196000
     45 H15         -6.6410    -4.2940     0.5990 h1         1 3SJ       0.059033
     46 H16         -7.7320    -2.9040     0.5160 h1         1 3SJ       0.059033
     47 H17         -7.2390    -3.7260    -0.9730 h1         1 3SJ       0.059033
     48 H18         -3.4580     3.6910     3.1320 h1         1 3SJ       0.053700
     49 H19         -4.8780     4.2690     2.2520 h1         1 3SJ       0.053700
     50 H20         -4.9550     2.7500     3.1560 h1         1 3SJ       0.053700
     51 H21         -2.1470    -3.1020    -1.0620 h1         1 3SJ       0.051200
     52 H22         -2.2220    -1.5420    -1.8860 h1         1 3SJ       0.051200
     53 C7          -6.9140    -3.4150     0.0180 c3         1 3SJ       0.073900
     54 C14         -4.3190     3.3820     2.5440 c3         1 3SJ       0.076300
@<TRIPOS>BOND
     1     1     2 ar  
     2     1     3 ar  
     3     1    31 1   
     4     2     7 ar  
     5     2    32 1   
     6     3    12 ar  
     7     3    33 1   
     8     4    10 ar  
     9     4    12 ar  
    10     4    34 1   
    11     5     8 ar  
    12     5    13 ar  
    13     5    35 1   
    14     6     9 ar  
    15     6    13 ar  
    16     6    36 1   
    17     7    15 ar  
    18     7    37 1   
    19     8    16 ar  
    20     8    38 1   
    21     9    16 ar  
    22     9    39 1   
    23    10    17 ar  
    24    10    40 1   
    25    11    14 2   
    26    11    27 1   
    27    11    41 1   
    28    12    15 ar  
    29    13    17 1   
    30    14    18 1   
    31    14    22 1   
    32    15    25 ar  
    33    16    30 1   
    34    17    25 ar  
    35    18    24 1   
    36    18    26 2   
    37    19    20 2   
    38    19    22 1   
    39    19    42 1   
    40    20    23 1   
    41    20    43 1   
    42    21    22 2   
    43    21    28 1   
    44    21    44 1   
    45    23    28 1   
    46    23    29 2   
    47    24    30 1   
    48    24    51 1   
    49    24    52 1   
    50    26    27 1   
    51    27    53 1   
    52    28    54 1   
    53    45    53 1   
    54    46    53 1   
    55    47    53 1   
    56    48    54 1   
    57    49    54 1   
    58    50    54 1   
@<TRIPOS>SUBSTRUCTURE
     1 3SJ         1 TEMP              0 ****  ****    0 ROOT
