@<TRIPOS>MOLECULE
3SJ
   54    58     1     0     0
SMALL
No Charge or Current Charge


@<TRIPOS>ATOM
      1 C31          9.0970     0.6870    -0.0770 ca         1 3SJ      -0.109000
      2 C30          8.3810     1.1790     1.0250 ca         1 3SJ      -0.102000
      3 C32          8.4290    -0.0310    -1.0820 ca         1 3SJ      -0.090000
      4 C25          6.3710    -0.9780    -1.9840 ca         1 3SJ      -0.062000
      5 C19          1.9510    -1.0730    -1.6060 ca         1 3SJ      -0.041500
      6 C20          2.2480    -0.7670     0.7850 ca         1 3SJ      -0.041500
      7 C29          6.9960     0.9510     1.1220 ca         1 3SJ      -0.083000
      8 C21          0.5690    -1.2420    -1.4130 ca         1 3SJ      -0.183500
      9 C17          0.8670    -0.9390     0.9750 ca         1 3SJ      -0.183500
     10 C26          4.9900    -1.1780    -1.8440 ca         1 3SJ      -0.158000
     11 C4          -5.6920    -1.2390     0.5820 cc         1 3SJ      -0.174000
     12 C27          7.0430    -0.2570    -0.9830 ca         1 3SJ      -0.088000
     13 C18          2.8270    -0.8350    -0.5120 cp         1 3SJ      -0.193500
     14 C3          -4.5200    -0.6290     0.2120 cd         1 3SJ      -0.118800
     15 C28          6.3080     0.2340     0.1250 ca         1 3SJ       0.282000
     16 C16          0.0220    -1.1780    -0.1160 ca         1 3SJ       0.157100
     17 C22          4.3080    -0.6540    -0.7180 cp         1 3SJ       0.440500
     18 C2          -3.6790    -1.6480    -0.3380 cd         1 3SJ       0.252300
     19 C12         -3.0640     1.4770     0.0440 cd         1 3SJ      -0.071000
     20 C11         -2.9690     2.8360     0.2660 cc         1 3SJ      -0.319200
     21 C9          -5.3170     1.5630     0.9470 cc         1 3SJ      -0.030400
     22 C8          -4.2920     0.8020     0.3960 cd         1 3SJ      -0.090200
     23 C10         -4.0390     3.6530     0.8410 c          1 3SJ       0.547200
     24 C1          -2.2830    -1.5550    -0.9220 c3         1 3SJ       0.139300
     25 N24          4.9750     0.0290     0.2420 nb         1 3SJ      -0.679000
     26 N6          -4.2730    -2.8320    -0.3230 nc         1 3SJ      -0.513800
     27 N5          -5.5000    -2.5720     0.2430 na         1 3SJ       0.141800
     28 N13         -5.2080     2.9410     1.1660 n          1 3SJ      -0.267000
     29 O23         -3.9170     4.8570     1.0220 o          1 3SJ      -0.563000
     30 O15         -1.3260    -1.3320     0.1340 os         1 3SJ      -0.336100
     31 H1          10.1680     0.8620    -0.1530 ha         1 3SJ       0.114000
     32 H2           8.8960     1.7350     1.8050 ha         1 3SJ       0.115000
     33 H3           8.9890    -0.4110    -1.9350 ha         1 3SJ       0.114000
     34 H4           6.9040    -1.3760    -2.8450 ha         1 3SJ       0.117000
     35 H5           2.3360    -1.1110    -2.6220 ha         1 3SJ       0.124000
     36 H6           2.8750    -0.5890     1.6560 ha         1 3SJ       0.124000
     37 H7           6.4480     1.3350     1.9780 ha         1 3SJ       0.130000
     38 H8          -0.0580    -1.4200    -2.2820 ha         1 3SJ       0.123500
     39 H9           0.4490    -0.8850     1.9770 ha         1 3SJ       0.123500
     40 H10          4.4570    -1.7480    -2.5980 ha         1 3SJ       0.122000
     41 H11         -6.6090    -0.8850     1.0340 h4         1 3SJ       0.154000
     42 H12         -2.2130     0.9640    -0.3800 ha         1 3SJ       0.185000
     43 H13         -2.0660     3.3820     0.0180 ha         1 3SJ       0.210000
     44 H14         -6.2850     1.1900     1.2550 h4         1 3SJ       0.196000
     45 H15         -6.0200    -4.4370     1.0730 h1         1 3SJ       0.059033
     46 H16         -7.3730    -3.2790     0.9090 h1         1 3SJ       0.059033
     47 H17         -6.7210    -4.0990    -0.5400 h1         1 3SJ       0.059033
     48 H18         -6.0140     4.1710     2.6920 h1         1 3SJ       0.053700
     49 H19         -6.6610     4.4800     1.0540 h1         1 3SJ       0.053700
     50 H20         -7.1860     3.0400     1.9660 h1         1 3SJ       0.053700
     51 H21         -2.0520    -2.4900    -1.4480 h1         1 3SJ       0.051200
     52 H22         -2.2590    -0.7490    -1.6660 h1         1 3SJ       0.051200
     53 C7          -6.4640    -3.6640     0.4330 c3         1 3SJ       0.073900
     54 C14         -6.3360     3.7000     1.7550 c3         1 3SJ       0.076300
@<TRIPOS>BOND
     1     1     2 ar  
     2     1     3 ar  
     3     1    31 1   
     4     2     7 ar  
     5     2    32 1   
     6     3    12 ar  
     7     3    33 1   
     8     4    10 ar  
     9     4    12 ar  
    10     4    34 1   
    11     5     8 ar  
    12     5    13 ar  
    13     5    35 1   
    14     6     9 ar  
    15     6    13 ar  
    16     6    36 1   
    17     7    15 ar  
    18     7    37 1   
    19     8    16 ar  
    20     8    38 1   
    21     9    16 ar  
    22     9    39 1   
    23    10    17 ar  
    24    10    40 1   
    25    11    14 2   
    26    11    27 1   
    27    11    41 1   
    28    12    15 ar  
    29    13    17 1   
    30    14    18 1   
    31    14    22 1   
    32    15    25 ar  
    33    16    30 1   
    34    17    25 ar  
    35    18    24 1   
    36    18    26 2   
    37    19    20 2   
    38    19    22 1   
    39    19    42 1   
    40    20    23 1   
    41    20    43 1   
    42    21    22 2   
    43    21    28 1   
    44    21    44 1   
    45    23    28 1   
    46    23    29 2   
    47    24    30 1   
    48    24    51 1   
    49    24    52 1   
    50    26    27 1   
    51    27    53 1   
    52    28    54 1   
    53    45    53 1   
    54    46    53 1   
    55    47    53 1   
    56    48    54 1   
    57    49    54 1   
    58    50    54 1   
@<TRIPOS>SUBSTRUCTURE
     1 3SJ         1 TEMP              0 ****  ****    0 ROOT
