@<TRIPOS>MOLECULE
3SK
   17    17     1     0     0
SMALL
bcc


@<TRIPOS>ATOM
      1 O8           2.3240    -0.5790     0.6280 o          1 3SK      -0.828300
      2 C1           1.7140     0.3510     0.0660 c          1 3SK       0.922200
      3 O9           2.2210     1.3680    -0.4460 o          1 3SK      -0.828300
      4 C2           0.1920     0.2610     0.0220 ca         1 3SK      -0.123600
      5 C3          -0.5270     1.4560     0.0480 ca         1 3SK      -0.108000
      6 C4          -1.9130     1.4780     0.0570 ca         1 3SK      -0.167000
      7 C5          -2.6100     0.2800     0.0030 ca         1 3SK      -0.161000
      8 C6          -1.9070    -0.9150    -0.0510 ca         1 3SK      -0.165000
      9 C7          -0.5120    -0.9540    -0.0300 ca         1 3SK      -0.051300
     10 C10          0.1570    -2.3000    -0.0940 c3         1 3SK      -0.025800
     11 H2           0.0190     2.3900     0.0700 ha         1 3SK       0.140000
     12 H3          -2.4440     2.4210     0.0960 ha         1 3SK       0.101000
     13 H4          -3.6920     0.2720    -0.0030 ha         1 3SK       0.097000
     14 H5          -2.4570    -1.8470    -0.1120 ha         1 3SK       0.098000
     15 H6           0.6300    -2.5600     0.8520 hc         1 3SK       0.033033
     16 H7          -0.5770    -3.0720    -0.3270 hc         1 3SK       0.033033
     17 H8           0.9360    -2.3370    -0.8540 hc         1 3SK       0.033033
@<TRIPOS>BOND
     1     1     2 1   
     2     2     3 1   
     3     2     4 1   
     4     4     5 ar  
     5     4     9 ar  
     6     5     6 ar  
     7     5    11 1   
     8     6     7 ar  
     9     6    12 1   
    10     7     8 ar  
    11     7    13 1   
    12     8     9 ar  
    13     8    14 1   
    14     9    10 1   
    15    10    15 1   
    16    10    16 1   
    17    10    17 1   
@<TRIPOS>SUBSTRUCTURE
     1 3SK         1 TEMP              0 ****  ****    0 ROOT
