@<TRIPOS>MOLECULE
3SK
   17    17     1     0     0
SMALL
No Charge or Current Charge


@<TRIPOS>ATOM
      1 O8           2.2930    -0.3070     0.9400 o          1 3SK      -0.723000
      2 C1           1.7040     0.3080     0.0630 c          1 3SK       0.711600
      3 O9           2.2700     1.0180    -0.7560 o          1 3SK      -0.723000
      4 C2           0.1920     0.2670     0.0400 ca         1 3SK      -0.123600
      5 C3          -0.5220     1.4850     0.0920 ca         1 3SK      -0.090000
      6 C4          -1.9260     1.4950     0.0800 ca         1 3SK      -0.149000
      7 C5          -2.6340     0.2870     0.0120 ca         1 3SK      -0.143000
      8 C6          -1.9380    -0.9300    -0.0500 ca         1 3SK      -0.147000
      9 C7          -0.5280    -0.9550    -0.0400 ca         1 3SK      -0.051300
     10 C10          0.1880    -2.2990    -0.1360 c3         1 3SK      -0.025800
     11 H2           0.0190     2.4270     0.1490 ha         1 3SK       0.122000
     12 H3          -2.4640     2.4390     0.1250 ha         1 3SK       0.083000
     13 H4          -3.7220     0.2930     0.0030 ha         1 3SK       0.079000
     14 H5          -2.4980    -1.8600    -0.1090 ha         1 3SK       0.080000
     15 H6           0.6040    -2.5940     0.8340 hc         1 3SK       0.033033
     16 H7          -0.4920    -3.0980    -0.4570 hc         1 3SK       0.033033
     17 H8           1.0080    -2.2640    -0.8630 hc         1 3SK       0.033033
@<TRIPOS>BOND
     1     1     2 1   
     2     2     3 1   
     3     2     4 1   
     4     4     5 ar  
     5     4     9 ar  
     6     5     6 ar  
     7     5    11 1   
     8     6     7 ar  
     9     6    12 1   
    10     7     8 ar  
    11     7    13 1   
    12     8     9 ar  
    13     8    14 1   
    14     9    10 1   
    15    10    15 1   
    16    10    16 1   
    17    10    17 1   
@<TRIPOS>SUBSTRUCTURE
     1 3SK         1 TEMP              0 ****  ****    0 ROOT
