@<TRIPOS>MOLECULE
3SL
   14    13     1     0     0
SMALL
abcg2


@<TRIPOS>ATOM
      1 O11         -1.4050     0.0430     2.6730 o          1 3SL      -0.751000
      2 C1          -0.1990    -0.0420     2.4010 c          1 3SL       0.689000
      3 O12          0.7330    -0.4020     3.1560 o          1 3SL      -0.751000
      4 C2           0.2500     0.3420     0.9680 c3         1 3SL       0.064300
      5 O2           1.6370     0.1730     0.8570 oh         1 3SL      -0.691000
      6 C3          -0.5180    -0.4800    -0.0560 c3         1 3SL      -0.332400
      7 S           -0.2070    -0.0220    -1.7710 s6         1 3SL       1.330600
      8 O3S          1.1830    -0.3990    -2.0850 o          1 3SL      -0.726200
      9 O1S         -0.4390     1.4370    -1.8430 o          1 3SL      -0.726200
     10 O2S         -1.1950    -0.7990    -2.5520 o          1 3SL      -0.726200
     11 H2          -0.0180     1.3980     0.8180 h1         1 3SL       0.037700
     12 HO2          1.8730    -0.1340     1.7540 ho         1 3SL       0.452000
     13 H31         -0.2920    -1.5450     0.0440 h1         1 3SL       0.065200
     14 H32         -1.5880    -0.3460     0.1060 h1         1 3SL       0.065200
@<TRIPOS>BOND
     1     1     2 1   
     2     2     3 1   
     3     2     4 1   
     4     4     5 1   
     5     4     6 1   
     6     4    11 1   
     7     5    12 1   
     8     6     7 1   
     9     6    13 1   
    10     6    14 1   
    11     7     8 1   
    12     7     9 1   
    13     7    10 1   
@<TRIPOS>SUBSTRUCTURE
     1 3SL         1 TEMP              0 ****  ****    0 ROOT
