@<TRIPOS>MOLECULE
3SL
   14    13     1     0     0
SMALL
No Charge or Current Charge


@<TRIPOS>ATOM
      1 O11         -0.3110     2.0060     1.8930 o          1 3SL      -0.751000
      2 C1          -0.2940     0.7820     1.8400 c          1 3SL       0.689000
      3 O12         -0.8870     0.0800     2.6510 o          1 3SL      -0.751000
      4 C2           0.7630     0.0800     0.8880 c3         1 3SL       0.064300
      5 O2           1.6760    -0.7690     1.6240 oh         1 3SL      -0.691000
      6 C3           0.1360    -0.7980    -0.2240 c3         1 3SL      -0.332400
      7 S           -0.8890     0.1170    -1.4040 s6         1 3SL       1.330600
      8 O3S         -0.0200     1.2090    -1.8680 o          1 3SL      -0.726200
      9 O1S         -2.0550     0.5520    -0.6220 o          1 3SL      -0.726200
     10 O2S         -1.1980    -0.8860    -2.4340 o          1 3SL      -0.726200
     11 H2           1.3380     0.8810     0.4030 h1         1 3SL       0.037700
     12 HO2          1.1350    -1.1890     2.3320 ho         1 3SL       0.452000
     13 H31          0.9260    -1.2680    -0.8190 h1         1 3SL       0.065200
     14 H32         -0.5050    -1.5740     0.2070 h1         1 3SL       0.065200
@<TRIPOS>BOND
     1     1     2 1   
     2     2     3 1   
     3     2     4 1   
     4     4     5 1   
     5     4     6 1   
     6     4    11 1   
     7     5    12 1   
     8     6     7 1   
     9     6    13 1   
    10     6    14 1   
    11     7     8 1   
    12     7     9 1   
    13     7    10 1   
@<TRIPOS>SUBSTRUCTURE
     1 3SL         1 TEMP              0 ****  ****    0 ROOT
