@<TRIPOS>MOLECULE
3SM
   49    52     1     0     0
SMALL
No Charge or Current Charge


@<TRIPOS>ATOM
      1 C13          2.9710     2.5550    -0.5700 ca         1 3SM       0.354300
      2 C17          4.2930     1.7830    -0.6580 c3         1 3SM       0.056700
      3 C16          0.5730     3.8930    -0.4060 ca         1 3SM      -0.171000
      4 C15          1.7450     4.6460    -0.5700 ca         1 3SM      -0.056000
      5 C21          4.9270    -1.8780     0.4810 c3         1 3SM       0.076600
      6 C23          5.7790    -4.0710     1.0780 c3         1 3SM       0.141900
      7 C11          0.6510     2.4880    -0.3330 ca         1 3SM       0.459800
      8 N1          -2.1010    -2.6620     0.1590 na         1 3SM      -0.159600
      9 C2          -3.2000    -3.5060     0.3380 cc         1 3SM       0.381700
     10 N3          -4.3410    -2.7930     0.4890 nd         1 3SM      -0.554100
     11 C4          -3.9140    -1.4530     0.3970 ca         1 3SM      -0.072600
     12 C5          -2.5670    -1.3830     0.1990 ca         1 3SM       0.021800
     13 C6          -1.9690    -0.1270     0.0850 ca         1 3SM      -0.204800
     14 C7          -2.7520     1.0110     0.1760 ca         1 3SM       0.440500
     15 N8          -1.9100     2.0980     0.0330 na         1 3SM      -0.306400
     16 C9          -0.5700     1.6840    -0.1580 cc         1 3SM      -0.187900
     17 C10         -0.6060     0.3000    -0.1210 cd         1 3SM      -0.136200
     18 N12          1.8340     1.8320    -0.4120 nb         1 3SM      -0.707000
     19 C14          2.9640     3.9590    -0.6530 ca         1 3SM      -0.167000
     20 N18          4.2160     0.3950    -0.1680 ns         1 3SM      -0.509900
     21 O20          6.4230    -0.1150    -0.3560 o          1 3SM      -0.580100
     22 O22          6.0760    -2.7530     0.5860 os         1 3SM      -0.415000
     23 N24         -4.0880     0.9850     0.3720 nb         1 3SM      -0.807000
     24 C25         -4.6520    -0.2380     0.4780 ca         1 3SM       0.713900
     25 N26         -6.0160    -0.2460     0.6790 nu         1 3SM      -0.920100
     26 H35          4.6210     1.7670    -1.7060 h1         1 3SM       0.063200
     27 H36          5.0540     2.3180    -0.0750 h1         1 3SM       0.063200
     28 H34         -0.3880     4.3940    -0.3390 ha         1 3SM       0.120000
     29 H33          1.7090     5.7320    -0.6310 ha         1 3SM       0.122000
     30 H38          4.4510    -1.7490     1.4620 h1         1 3SM       0.033200
     31 H39          4.1790    -2.3070    -0.1980 h1         1 3SM       0.033200
     32 H41          5.0690    -4.5830     0.4150 h1         1 3SM       0.030033
     33 H40          6.6950    -4.6740     1.1300 h1         1 3SM       0.030033
     34 H42          5.3440    -4.0230     2.0840 h1         1 3SM       0.030033
     35 H45         -6.8710     1.6070     0.0900 h1         1 3SM       0.039700
     36 H44         -7.9400     0.5640     1.0600 h1         1 3SM       0.039700
     37 H46         -6.5970     1.4320     1.8440 h1         1 3SM       0.039700
     38 H29         -3.1090    -4.5850     0.3490 h5         1 3SM       0.062800
     39 H30         -2.2380     3.0540     0.0700 hn         1 3SM       0.357000
     40 H31          0.2610    -0.3470    -0.2290 ha         1 3SM       0.204000
     41 H32          3.8960     4.5040    -0.7810 ha         1 3SM       0.130000
     42 H37          3.3010     0.0420     0.0930 hn         1 3SM       0.342500
     43 H43         -6.3930    -1.1870     0.7860 hn         1 3SM       0.515000
     44 H48         -0.3410    -2.6290    -1.0020 h1         1 3SM       0.054033
     45 H47         -0.0840    -2.5950     0.7720 h1         1 3SM       0.054033
     46 H49         -0.5800    -4.1120    -0.0330 h1         1 3SM       0.054033
     47 C28         -0.6900    -3.0200    -0.0380 c3         1 3SM       0.065900
     48 C19          5.2870    -0.4650    -0.0530 c          1 3SM       0.601100
     49 C27         -6.9030     0.9010     0.9320 c3         1 3SM       0.223100
@<TRIPOS>BOND
     1     1     2 1   
     2     1    18 ar  
     3     1    19 ar  
     4     2    20 1   
     5     2    26 1   
     6     2    27 1   
     7     3     4 ar  
     8     3     7 ar  
     9     3    28 1   
    10     4    19 ar  
    11     4    29 1   
    12     5    22 1   
    13     5    30 1   
    14     5    31 1   
    15     5    48 1   
    16     6    22 1   
    17     6    32 1   
    18     6    33 1   
    19     6    34 1   
    20     7    16 1   
    21     7    18 ar  
    22     8     9 1   
    23     8    12 1   
    24     8    47 1   
    25     9    10 2   
    26     9    38 1   
    27    10    11 1   
    28    11    12 ar  
    29    11    24 ar  
    30    12    13 ar  
    31    13    14 ar  
    32    13    17 1   
    33    14    15 1   
    34    14    23 ar  
    35    15    16 1   
    36    15    39 1   
    37    16    17 2   
    38    17    40 1   
    39    19    41 1   
    40    20    42 1   
    41    20    48 1   
    42    21    48 2   
    43    23    24 ar  
    44    24    25 1   
    45    25    43 1   
    46    25    49 1   
    47    35    49 1   
    48    36    49 1   
    49    37    49 1   
    50    44    47 1   
    51    45    47 1   
    52    46    47 1   
@<TRIPOS>SUBSTRUCTURE
     1 3SM         1 TEMP              0 ****  ****    0 ROOT
