@<TRIPOS>MOLECULE
3SM
   49    52     1     0     0
SMALL
bcc


@<TRIPOS>ATOM
      1 C13          2.9710     2.6060    -0.4350 ca         1 3SM       0.419600
      2 C17          4.3140     1.9220    -0.3880 c3         1 3SM       0.056700
      3 C16          0.5170     3.7780    -0.5210 ca         1 3SM      -0.254300
      4 C15          1.6460     4.5640    -0.6940 ca         1 3SM      -0.074000
      5 C21          4.7870    -1.7210     0.4540 c3         1 3SM       0.053400
      6 C23          5.5670    -3.9020     0.6170 c3         1 3SM       0.118700
      7 C11          0.6820     2.4110    -0.3020 ca         1 3SM       0.525100
      8 N1          -2.1470    -2.8050     0.3620 na         1 3SM      -0.130300
      9 C2          -3.3140    -3.4910     0.5330 cc         1 3SM       0.381700
     10 N3          -4.3590    -2.7180     0.5900 nd         1 3SM      -0.554100
     11 C4          -3.8580    -1.4500     0.4490 ca         1 3SM      -0.137900
     12 C5          -2.4790    -1.4880     0.3060 ca         1 3SM       0.021800
     13 C6          -1.7460    -0.2970     0.1490 ca         1 3SM      -0.270100
     14 C7          -2.5590     0.8520     0.1580 ca         1 3SM       0.505800
     15 N8          -1.7400     1.9220    -0.0060 na         1 3SM      -0.256100
     16 C9          -0.4310     1.5010    -0.1100 cc         1 3SM      -0.187900
     17 C10         -0.4070     0.1280    -0.0170 cd         1 3SM      -0.086200
     18 N12          1.9000     1.8570    -0.2650 nb         1 3SM      -0.707000
     19 C14          2.8990     3.9800    -0.6530 ca         1 3SM      -0.250300
     20 N18          4.1570     0.5240    -0.0950 ns         1 3SM      -0.576900
     21 O20          6.3550     0.0220    -0.0950 o          1 3SM      -0.580100
     22 O22          5.8620    -2.5790     0.2400 os         1 3SM      -0.368600
     23 N24         -3.8880     0.9360     0.3010 nb         1 3SM      -0.807000
     24 C25         -4.5490    -0.2010     0.4430 ca         1 3SM       0.779200
     25 N26         -5.8870    -0.1780     0.5740 nu         1 3SM      -0.864900
     26 H35          4.8190     2.0670    -1.3490 h1         1 3SM       0.063200
     27 H36          4.9400     2.4130     0.3640 h1         1 3SM       0.063200
     28 H34         -0.4640     4.2310    -0.5670 ha         1 3SM       0.138000
     29 H33          1.5430     5.6280    -0.8630 ha         1 3SM       0.140000
     30 H38          4.4860    -1.7010     1.5140 h1         1 3SM       0.033200
     31 H39          3.8970    -2.0330    -0.1110 h1         1 3SM       0.033200
     32 H41          4.7240    -4.3120     0.0480 h1         1 3SM       0.030033
     33 H40          6.4480    -4.5100     0.4160 h1         1 3SM       0.030033
     34 H42          5.3240    -3.9810     1.6830 h1         1 3SM       0.030033
     35 H45         -6.5110     1.6800    -0.1820 h1         1 3SM       0.039700
     36 H44         -7.6940     0.7870     0.7760 h1         1 3SM       0.039700
     37 H46         -6.3560     1.6220     1.5750 h1         1 3SM       0.039700
     38 H29         -3.3210    -4.5690     0.6070 h5         1 3SM       0.062800
     39 H30         -2.0590     2.8770     0.0000 hn         1 3SM       0.306700
     40 H31          0.4770    -0.4860    -0.0760 ha         1 3SM       0.154000
     41 H32          3.7980     4.5670    -0.7850 ha         1 3SM       0.148000
     42 H37          3.2050     0.2050     0.0220 hn         1 3SM       0.342500
     43 H43         -6.3470    -1.0480     0.7770 hn         1 3SM       0.459800
     44 H48         -0.3740    -3.1140    -0.7040 h1         1 3SM       0.054033
     45 H47         -0.1820    -2.9780     1.0550 h1         1 3SM       0.054033
     46 H49         -0.8770    -4.4420     0.3490 h1         1 3SM       0.054033
     47 C28         -0.8180    -3.3610     0.2590 c3         1 3SM       0.036600
     48 C19          5.1910    -0.3130     0.0510 c          1 3SM       0.668100
     49 C27         -6.6410     1.0420     0.6930 c3         1 3SM       0.223100
@<TRIPOS>BOND
     1     1     2 1   
     2     1    18 ar  
     3     1    19 ar  
     4     2    20 1   
     5     2    26 1   
     6     2    27 1   
     7     3     4 ar  
     8     3     7 ar  
     9     3    28 1   
    10     4    19 ar  
    11     4    29 1   
    12     5    22 1   
    13     5    30 1   
    14     5    31 1   
    15     5    48 1   
    16     6    22 1   
    17     6    32 1   
    18     6    33 1   
    19     6    34 1   
    20     7    16 1   
    21     7    18 ar  
    22     8     9 1   
    23     8    12 1   
    24     8    47 1   
    25     9    10 2   
    26     9    38 1   
    27    10    11 1   
    28    11    12 ar  
    29    11    24 ar  
    30    12    13 ar  
    31    13    14 ar  
    32    13    17 1   
    33    14    15 1   
    34    14    23 ar  
    35    15    16 1   
    36    15    39 1   
    37    16    17 2   
    38    17    40 1   
    39    19    41 1   
    40    20    42 1   
    41    20    48 1   
    42    21    48 2   
    43    23    24 ar  
    44    24    25 1   
    45    25    43 1   
    46    25    49 1   
    47    35    49 1   
    48    36    49 1   
    49    37    49 1   
    50    44    47 1   
    51    45    47 1   
    52    46    47 1   
@<TRIPOS>SUBSTRUCTURE
     1 3SM         1 TEMP              0 ****  ****    0 ROOT
