@<TRIPOS>MOLECULE
3SN
   59    62     1     0     0
SMALL
bcc


@<TRIPOS>ATOM
      1 C14          0.4850     1.4610     0.1780 ca         1 3SN       0.192900
      2 C5           5.6520    -1.6940     0.8470 c6         1 3SN       0.091500
      3 C6           4.2040    -1.4740     0.4480 c6         1 3SN       0.173800
      4 C11          1.5080    -0.7670     1.3800 ca         1 3SN      -0.185000
      5 C8           4.6380     0.8990     0.2150 c6         1 3SN       0.173800
      6 C9           6.0830     0.6520     0.6190 c6         1 3SN       0.091500
      7 C10          2.3970     0.1200     0.7530 ca         1 3SN       0.191600
      8 C12          0.1480    -0.5290     1.3710 ca         1 3SN      -0.042000
      9 C13         -0.4120     0.5930     0.7690 ca         1 3SN      -0.169300
     10 C1           8.1930     0.1550    -1.3010 c3         1 3SN      -0.177100
     11 O3           7.6840    -2.1520    -0.9840 o          1 3SN      -0.601100
     12 N4           6.4970    -0.6830     0.2480 n          1 3SN      -0.483800
     13 N7           3.7690    -0.1200     0.7730 nh         1 3SN      -0.648000
     14 C15          1.8510     1.2540     0.1420 ca         1 3SN      -0.242000
     15 F16          0.0160     2.5750    -0.4130 f          1 3SN      -0.142900
     16 C17         -1.8900     0.8480     0.8050 c3         1 3SN       0.265100
     17 N18         -2.5090     1.0120    -0.5140 n3         1 3SN      -0.706500
     18 C19         -3.4990     2.0710    -0.6650 cy         1 3SN       0.188500
     19 C20         -4.6620     2.2520     0.3320 cy         1 3SN      -0.100900
     20 C21         -4.5210     3.7690     0.0970 cy         1 3SN      -0.094400
     21 C22         -3.0830     3.5260    -0.4020 cy         1 3SN      -0.100900
     22 S23         -2.7540    -0.3780    -1.3770 sy         1 3SN       1.299200
     23 O24         -3.1410     0.0100    -2.7240 o          1 3SN      -0.602800
     24 O25         -1.5850    -1.2170    -1.1820 o          1 3SN      -0.602800
     25 C26         -4.1360    -1.1950    -0.6230 ca         1 3SN      -0.298500
     26 C27         -5.4220    -0.8940    -1.0540 ca         1 3SN      -0.035500
     27 C28         -6.5010    -1.4960    -0.4250 ca         1 3SN      -0.150000
     28 C29         -6.2930    -2.3870     0.6190 ca         1 3SN      -0.076000
     29 C30         -5.0030    -2.6890     1.0340 ca         1 3SN      -0.150000
     30 C31         -3.9140    -2.0970     0.4110 ca         1 3SN      -0.035500
     31 H1           5.7480    -1.6370     1.9360 h1         1 3SN       0.063450
     32 H2           5.9730    -2.6820     0.5310 h1         1 3SN       0.063450
     33 H3           4.0880    -1.6710    -0.6270 h1         1 3SN       0.050450
     34 H4           3.5980    -2.2030     0.9800 h1         1 3SN       0.050450
     35 H5           1.8770    -1.6450     1.8910 ha         1 3SN       0.138000
     36 H6           4.3470     1.8750     0.6040 h1         1 3SN       0.050450
     37 H7           4.5690     0.9430    -0.8820 h1         1 3SN       0.050450
     38 H8           6.7140     1.4080     0.1610 h1         1 3SN       0.063450
     39 H9           6.1820     0.7610     1.7040 h1         1 3SN       0.063450
     40 H10         -0.5060    -1.2410     1.8610 ha         1 3SN       0.128000
     41 H11          8.9290    -0.2420    -1.9940 hc         1 3SN       0.060367
     42 H12          7.5260     0.8200    -1.8510 hc         1 3SN       0.060367
     43 H13          8.7140     0.7580    -0.5560 hc         1 3SN       0.060367
     44 H14          2.4610     1.9780    -0.3800 ha         1 3SN       0.148000
     45 H15         -2.3770     0.0570     1.3870 h1         1 3SN       0.052200
     46 H16         -2.0920     1.7650     1.3590 h1         1 3SN       0.052200
     47 H17         -3.8980     2.0170    -1.6770 h1         1 3SN       0.089700
     48 H18         -5.6130     1.7760     0.0960 hc         1 3SN       0.059200
     49 H19         -4.3770     1.9810     1.3510 hc         1 3SN       0.059200
     50 H20         -5.1750     4.1160    -0.7040 hc         1 3SN       0.054200
     51 H21         -4.6430     4.4220     0.9590 hc         1 3SN       0.054200
     52 H22         -2.3660     3.6210     0.4140 hc         1 3SN       0.059200
     53 H23         -2.7160     4.0960    -1.2540 hc         1 3SN       0.059200
     54 H24         -5.5880    -0.2070    -1.8730 ha         1 3SN       0.151500
     55 H25         -7.5060    -1.2710    -0.7570 ha         1 3SN       0.136500
     56 H26         -7.1380    -2.8530     1.1070 ha         1 3SN       0.134000
     57 H27         -4.8410    -3.3920     1.8400 ha         1 3SN       0.136500
     58 H28         -2.9100    -2.3500     0.7250 ha         1 3SN       0.151500
     59 C2           7.4390    -0.9930    -0.6720 c          1 3SN       0.676100
@<TRIPOS>BOND
     1     1     9 ar  
     2     1    14 ar  
     3     1    15 1   
     4     2     3 1   
     5     2    12 1   
     6     2    31 1   
     7     2    32 1   
     8     3    13 1   
     9     3    33 1   
    10     3    34 1   
    11     4     7 ar  
    12     4     8 ar  
    13     4    35 1   
    14     5     6 1   
    15     5    13 1   
    16     5    36 1   
    17     5    37 1   
    18     6    12 1   
    19     6    38 1   
    20     6    39 1   
    21     7    13 1   
    22     7    14 ar  
    23     8     9 ar  
    24     8    40 1   
    25     9    16 1   
    26    10    41 1   
    27    10    42 1   
    28    10    43 1   
    29    10    59 1   
    30    11    59 2   
    31    12    59 1   
    32    14    44 1   
    33    16    17 1   
    34    16    45 1   
    35    16    46 1   
    36    17    18 1   
    37    17    22 1   
    38    18    19 1   
    39    18    21 1   
    40    18    47 1   
    41    19    20 1   
    42    19    48 1   
    43    19    49 1   
    44    20    21 1   
    45    20    50 1   
    46    20    51 1   
    47    21    52 1   
    48    21    53 1   
    49    22    23 2   
    50    22    24 2   
    51    22    25 1   
    52    25    26 ar  
    53    25    30 ar  
    54    26    27 ar  
    55    26    54 1   
    56    27    28 ar  
    57    27    55 1   
    58    28    29 ar  
    59    28    56 1   
    60    29    30 ar  
    61    29    57 1   
    62    30    58 1   
@<TRIPOS>SUBSTRUCTURE
     1 3SN         1 TEMP              0 ****  ****    0 ROOT
