@<TRIPOS>MOLECULE
3SN
   59    62     1     0     0
SMALL
No Charge or Current Charge


@<TRIPOS>ATOM
      1 C14          0.0810     1.7160    -0.2860 ca         1 3SN       0.228000
      2 C5           4.7300    -2.1640     1.0470 c6         1 3SN       0.091500
      3 C6           3.4180    -1.7040     0.3530 c6         1 3SN       0.173800
      4 C11          0.7730    -0.4450     1.3440 ca         1 3SN      -0.167000
      5 C8           4.2530     0.6600     0.4150 c6         1 3SN       0.173800
      6 C9           5.5540     0.1600     1.1050 c6         1 3SN       0.091500
      7 C10          1.7680     0.1890     0.5800 ca         1 3SN       0.330000
      8 C12         -0.5600    -0.0090     1.2930 ca         1 3SN      -0.024000
      9 C13         -0.9240     1.0630     0.4560 ca         1 3SN      -0.169300
     10 C1           8.0600    -0.6410    -0.3840 c3         1 3SN      -0.177100
     11 O3           6.9910    -2.7690    -0.5700 o          1 3SN      -0.601100
     12 N4           5.8630    -1.2510     0.7340 n          1 3SN      -0.416800
     13 N7           3.1030    -0.2700     0.6470 nh         1 3SN      -0.786400
     14 C15          1.4120     1.2800    -0.2280 ca         1 3SN      -0.224000
     15 F16         -0.2160     2.7880    -1.0550 f          1 3SN      -0.178000
     16 C17         -2.3770     1.5290     0.4110 c3         1 3SN       0.265100
     17 N18         -2.9720     1.5900    -0.9490 n3         1 3SN      -0.706500
     18 C19         -3.9070     2.7020    -1.2460 cy         1 3SN       0.188500
     19 C20         -5.0940     2.9480    -0.2540 cy         1 3SN      -0.100900
     20 C21         -5.0170     4.4420    -0.7220 cy         1 3SN      -0.094400
     21 C22         -3.4860     4.1810    -0.9300 cy         1 3SN      -0.100900
     22 S23         -3.0480     0.1210    -1.8250 sy         1 3SN       1.157600
     23 O24         -4.3800     0.1050    -2.4430 o          1 3SN      -0.532000
     24 O25         -1.8290     0.0320    -2.6370 o          1 3SN      -0.532000
     25 C26         -3.0780    -1.1810    -0.5750 ca         1 3SN      -0.298500
     26 C27         -4.1940    -1.3120     0.2780 ca         1 3SN      -0.017500
     27 C28         -4.2250    -2.3340     1.2420 ca         1 3SN      -0.132000
     28 C29         -3.1530    -3.2370     1.3500 ca         1 3SN      -0.058000
     29 C30         -2.0500    -3.1210     0.4870 ca         1 3SN      -0.132000
     30 C31         -2.0110    -2.1000    -0.4780 ca         1 3SN      -0.017500
     31 H1           4.5730    -2.1730     2.1350 h1         1 3SN       0.063450
     32 H2           4.9570    -3.1970     0.7480 h1         1 3SN       0.063450
     33 H3           3.5260    -1.8420    -0.7330 h1         1 3SN       0.050450
     34 H4           2.6020    -2.3620     0.6820 h1         1 3SN       0.050450
     35 H5           1.0370    -1.2750     1.9930 ha         1 3SN       0.120000
     36 H6           4.0190     1.6620     0.8040 h1         1 3SN       0.050450
     37 H7           4.4400     0.7600    -0.6640 h1         1 3SN       0.050450
     38 H8           6.3760     0.8430     0.8580 h1         1 3SN       0.063450
     39 H9           5.4170     0.2130     2.1940 h1         1 3SN       0.063450
     40 H10         -1.3110    -0.5120     1.8980 ha         1 3SN       0.110000
     41 H11          8.8850    -1.0900    -0.9480 hc         1 3SN       0.060367
     42 H12          7.6470     0.2220    -0.9170 hc         1 3SN       0.060367
     43 H13          8.4050    -0.2060     0.5610 hc         1 3SN       0.060367
     44 H14          2.1580     1.7930    -0.8240 ha         1 3SN       0.130000
     45 H15         -2.9900     0.8990     1.0660 h1         1 3SN       0.052200
     46 H16         -2.3870     2.5160     0.8830 h1         1 3SN       0.052200
     47 H17         -4.2610     2.6370    -2.2840 h1         1 3SN       0.089700
     48 H18         -6.0230     2.4190    -0.4870 hc         1 3SN       0.059200
     49 H19         -4.8610     2.7940     0.8050 hc         1 3SN       0.059200
     50 H20         -5.5720     4.6610    -1.6430 hc         1 3SN       0.054200
     51 H21         -5.2780     5.1940     0.0300 hc         1 3SN       0.054200
     52 H22         -2.8810     4.3410    -0.0320 hc         1 3SN       0.059200
     53 H23         -3.0170     4.7230    -1.7580 hc         1 3SN       0.059200
     54 H24         -5.0310    -0.6190     0.2000 ha         1 3SN       0.133500
     55 H25         -5.0820    -2.4280     1.9050 ha         1 3SN       0.118500
     56 H26         -3.1790    -4.0270     2.0970 ha         1 3SN       0.116000
     57 H27         -1.2220    -3.8220     0.5670 ha         1 3SN       0.118500
     58 H28         -1.1490    -2.0220    -1.1380 ha         1 3SN       0.133500
     59 C2           6.9340    -1.6380    -0.1040 c          1 3SN       0.609100
@<TRIPOS>BOND
     1     1     9 ar  
     2     1    14 ar  
     3     1    15 1   
     4     2     3 1   
     5     2    12 1   
     6     2    31 1   
     7     2    32 1   
     8     3    13 1   
     9     3    33 1   
    10     3    34 1   
    11     4     7 ar  
    12     4     8 ar  
    13     4    35 1   
    14     5     6 1   
    15     5    13 1   
    16     5    36 1   
    17     5    37 1   
    18     6    12 1   
    19     6    38 1   
    20     6    39 1   
    21     7    13 1   
    22     7    14 ar  
    23     8     9 ar  
    24     8    40 1   
    25     9    16 1   
    26    10    41 1   
    27    10    42 1   
    28    10    43 1   
    29    10    59 1   
    30    11    59 2   
    31    12    59 1   
    32    14    44 1   
    33    16    17 1   
    34    16    45 1   
    35    16    46 1   
    36    17    18 1   
    37    17    22 1   
    38    18    19 1   
    39    18    21 1   
    40    18    47 1   
    41    19    20 1   
    42    19    48 1   
    43    19    49 1   
    44    20    21 1   
    45    20    50 1   
    46    20    51 1   
    47    21    52 1   
    48    21    53 1   
    49    22    23 2   
    50    22    24 2   
    51    22    25 1   
    52    25    26 ar  
    53    25    30 ar  
    54    26    27 ar  
    55    26    54 1   
    56    27    28 ar  
    57    27    55 1   
    58    28    29 ar  
    59    28    56 1   
    60    29    30 ar  
    61    29    57 1   
    62    30    58 1   
@<TRIPOS>SUBSTRUCTURE
     1 3SN         1 TEMP              0 ****  ****    0 ROOT
