@<TRIPOS>MOLECULE
3SP
   64    66     1     0     0
SMALL
No Charge or Current Charge


@<TRIPOS>ATOM
      1 C18          0.7900    -1.2810    -0.1110 c          1 3SP       0.564100
      2 O19         -0.2550    -0.9210    -0.6440 o          1 3SP      -0.597100
      3 C20          2.0560    -0.3410    -0.0220 c3         1 3SP       0.139500
      4 C24          2.8810    -0.3860    -1.3400 c3         1 3SP      -0.063400
      5 C25          4.2810     0.3080    -1.3110 c6         1 3SP      -0.056700
      6 C26          5.2610    -0.3650    -0.3030 c6         1 3SP      -0.069900
      7 C27          6.6500     0.3210    -0.3120 c6         1 3SP      -0.073400
      8 C28          7.2590     0.3430    -1.7340 c6         1 3SP      -0.072400
      9 C29          6.2960     1.0200    -2.7380 c6         1 3SP      -0.073400
     10 C30          4.9100     0.3310    -2.7340 c6         1 3SP      -0.069900
     11 N21          1.7410     1.0670     0.4250 n7         1 3SP      -0.864400
     12 C22          1.0770     1.9860    -0.5680 c3         1 3SP       0.017800
     13 C23          0.2600     3.1690     0.0670 c          1 3SP       0.715000
     14 O31          0.7150     4.3030     0.0020 o          1 3SP      -0.741000
     15 O32         -0.7990     2.8980     0.6220 o          1 3SP      -0.741000
     16 N17          0.8320    -2.5340     0.5370 n          1 3SP      -0.413800
     17 C13         -0.4090    -3.2900     0.8550 c5         1 3SP       0.030700
     18 C11         -1.4160    -2.4660     1.7230 c          1 3SP       0.599100
     19 O12         -1.1400    -1.6500     2.5940 o          1 3SP      -0.585100
     20 C14          0.1600    -4.4650     1.7040 c5         1 3SP      -0.086400
     21 C15          1.5340    -4.7110     1.0320 c5         1 3SP      -0.094400
     22 C16          2.0720    -3.2680     0.8630 c5         1 3SP       0.113000
     23 C1          -4.4670     1.1540    -0.4460 cc         1 3SP      -0.279900
     24 C2          -5.6250     0.4080    -0.4150 cd         1 3SP      -0.109000
     25 C3          -5.5390    -0.7680     0.3750 cd         1 3SP      -0.154000
     26 C4          -4.3140    -0.9430     0.9630 cc         1 3SP      -0.288300
     27 S5          -3.2230     0.3840     0.5410 ss         1 3SP       0.373000
     28 N7          -5.1100     2.9200    -1.8900 n2         1 3SP      -0.886100
     29 N8          -3.0170     2.9880    -1.1600 nv         1 3SP      -1.074200
     30 C9          -3.8830    -2.0630     1.8690 c3         1 3SP       0.181300
     31 N10         -2.7100    -2.7580     1.3510 ns         1 3SP      -0.505900
     32 H20          2.6820    -0.7820     0.7620 h1         1 3SP       0.048700
     33 H241         3.0180    -1.4390    -1.6160 hc         1 3SP       0.037700
     34 H242         2.2730     0.0430    -2.1460 hc         1 3SP       0.037700
     35 H25          4.1130     1.3470    -0.9950 hc         1 3SP       0.086700
     36 H261         4.8540    -0.3200     0.7150 hc         1 3SP       0.033450
     37 H262         5.3750    -1.4300    -0.5470 hc         1 3SP       0.033450
     38 H271         6.5570     1.3480     0.0670 hc         1 3SP       0.035700
     39 H272         7.3280    -0.2040     0.3750 hc         1 3SP       0.035700
     40 H281         8.2190     0.8760    -1.7200 hc         1 3SP       0.027200
     41 H282         7.4750    -0.6830    -2.0610 hc         1 3SP       0.027200
     42 H291         6.1820     2.0830    -2.4840 hc         1 3SP       0.035700
     43 H292         6.7270     0.9850    -3.7480 hc         1 3SP       0.035700
     44 H301         5.0100    -0.6960    -3.1140 hc         1 3SP       0.033450
     45 H302         4.2420     0.8560    -3.4310 hc         1 3SP       0.033450
     46 HN21         1.1070     0.9900     1.2340 hn         1 3SP       0.458000
     47 H221         1.8260     2.4100    -1.2510 h1         1 3SP       0.028200
     48 H222         0.3640     1.4340    -1.1930 h1         1 3SP       0.028200
     49 H13         -0.8920    -3.6430    -0.0660 h1         1 3SP       0.061700
     50 H141         0.2900    -4.1800     2.7560 hc         1 3SP       0.054200
     51 H142        -0.4880    -5.3490     1.6840 hc         1 3SP       0.054200
     52 H151         2.1990    -5.3380     1.6370 hc         1 3SP       0.047700
     53 H152         1.4140    -5.2030     0.0590 hc         1 3SP       0.047700
     54 H161         2.5120    -2.8910     1.7960 h1         1 3SP       0.051200
     55 H162         2.8250    -3.2020     0.0660 h1         1 3SP       0.051200
     56 H3          -6.3670    -1.4600     0.4990 ha         1 3SP       0.113000
     57 HN7         -4.6450     3.5450    -2.5560 hn         1 3SP       0.362400
     58 HN81        -2.3760     2.7280    -0.4080 hn         1 3SP       0.500000
     59 HN82        -3.0240     3.9790    -1.3590 hn         1 3SP       0.500000
     60 H91         -3.6710    -1.6660     2.8710 h1         1 3SP       0.055700
     61 H92         -4.7010    -2.7890     1.9670 h1         1 3SP       0.055700
     62 HN10        -2.8420    -3.4370     0.6120 hn         1 3SP       0.314500
     63 C6          -4.2150     2.3910    -1.1670 ce         1 3SP       0.701800
     64 H2          -6.5260     0.6900    -0.9520 ha         1 3SP       0.140000
@<TRIPOS>BOND
     1     1     2 2   
     2     1     3 1   
     3     1    16 1   
     4     3     4 1   
     5     3    11 1   
     6     3    32 1   
     7     4     5 1   
     8     4    33 1   
     9     4    34 1   
    10     5     6 1   
    11     5    10 1   
    12     5    35 1   
    13     6     7 1   
    14     6    36 1   
    15     6    37 1   
    16     7     8 1   
    17     7    38 1   
    18     7    39 1   
    19     8     9 1   
    20     8    40 1   
    21     8    41 1   
    22     9    10 1   
    23     9    42 1   
    24     9    43 1   
    25    10    44 1   
    26    10    45 1   
    27    11    12 1   
    28    11    46 1   
    29    12    13 1   
    30    12    47 1   
    31    12    48 1   
    32    13    14 1   
    33    13    15 1   
    34    16    17 1   
    35    16    22 1   
    36    17    18 1   
    37    17    20 1   
    38    17    49 1   
    39    18    19 2   
    40    18    31 1   
    41    20    21 1   
    42    20    50 1   
    43    20    51 1   
    44    21    22 1   
    45    21    52 1   
    46    21    53 1   
    47    22    54 1   
    48    22    55 1   
    49    23    24 2   
    50    23    27 1   
    51    23    63 1   
    52    24    25 1   
    53    24    64 1   
    54    25    26 2   
    55    25    56 1   
    56    26    27 1   
    57    26    30 1   
    58    28    57 1   
    59    28    63 2   
    60    29    58 1   
    61    29    59 1   
    62    29    63 1   
    63    30    31 1   
    64    30    60 1   
    65    30    61 1   
    66    31    62 1   
@<TRIPOS>SUBSTRUCTURE
     1 3SP         1 TEMP              0 ****  ****    0 ROOT
