@<TRIPOS>MOLECULE
3SP
   64    66     1     0     0
SMALL
bcc


@<TRIPOS>ATOM
      1 C18          0.7600    -1.1980    -0.0680 c          1 3SP       0.631100
      2 O19         -0.2970    -0.8670    -0.5890 o          1 3SP      -0.597100
      3 C20          1.9720    -0.2650    -0.0050 c3         1 3SP       0.139500
      4 C24          2.8600    -0.5250    -1.2260 c3         1 3SP      -0.063400
      5 C25          4.1860     0.2340    -1.2380 c6         1 3SP      -0.056700
      6 C26          5.1050    -0.1770    -0.0880 c6         1 3SP      -0.069900
      7 C27          6.4570     0.5290    -0.1540 c6         1 3SP      -0.073400
      8 C28          7.1440     0.3120    -1.4980 c6         1 3SP      -0.072400
      9 C29          6.2350     0.7330    -2.6480 c6         1 3SP      -0.073400
     10 C30          4.8900     0.0180    -2.5790 c6         1 3SP      -0.069900
     11 N21          1.6260     1.1320     0.1290 n7         1 3SP      -0.809200
     12 C22          1.1320     1.8470    -1.0300 c3         1 3SP       0.017800
     13 C23          0.3560     3.1140    -0.6270 c          1 3SP       0.925600
     14 O31          0.2410     3.9920    -1.5020 o          1 3SP      -0.846300
     15 O32         -0.1360     3.1410     0.5240 o          1 3SP      -0.846300
     16 N17          0.8890    -2.4210     0.4820 n          1 3SP      -0.480800
     17 C13         -0.2620    -3.3030     0.5320 c5         1 3SP       0.030700
     18 C11         -1.4080    -2.6350     1.2850 c          1 3SP       0.666100
     19 O12         -1.2110    -2.0120     2.3140 o          1 3SP      -0.585100
     20 C14          0.2510    -4.5350     1.2960 c5         1 3SP      -0.086400
     21 C15          1.7630    -4.4820     1.0980 c5         1 3SP      -0.094400
     22 C16          2.0580    -2.9900     1.1390 c5         1 3SP       0.113000
     23 C1          -4.4530     1.2220    -0.1240 cc         1 3SP      -0.135000
     24 C2          -5.6620     0.7500     0.3010 cd         1 3SP      -0.127000
     25 C3          -5.5780    -0.5500     0.8540 cd         1 3SP      -0.172000
     26 C4          -4.3080    -1.0510     0.8440 cc         1 3SP      -0.143400
     27 S5          -3.2040     0.0630     0.1440 ss         1 3SP       0.083200
     28 N7          -5.1870     3.1380    -1.2950 n2         1 3SP      -0.886100
     29 N8          -2.8810     2.8710    -0.8720 nv         1 3SP      -0.963800
     30 C9          -3.8400    -2.3690     1.3890 c3         1 3SP       0.181300
     31 N10         -2.6320    -2.8560     0.7740 ns         1 3SP      -0.572900
     32 H20          2.5380    -0.5290     0.8950 h1         1 3SP       0.048700
     33 H241         3.0710    -1.5980    -1.2950 hc         1 3SP       0.037700
     34 H242         2.2970    -0.2780    -2.1300 hc         1 3SP       0.037700
     35 H25          3.9770     1.3060    -1.1350 hc         1 3SP       0.086700
     36 H261         4.6350     0.0400     0.8750 hc         1 3SP       0.033450
     37 H262         5.2580    -1.2630    -0.1240 hc         1 3SP       0.033450
     38 H271         6.3090     1.6030     0.0060 hc         1 3SP       0.035700
     39 H272         7.0980     0.1820     0.6600 hc         1 3SP       0.035700
     40 H281         8.0850     0.8650    -1.5350 hc         1 3SP       0.027200
     41 H282         7.3990    -0.7480    -1.6080 hc         1 3SP       0.027200
     42 H291         6.0730     1.8150    -2.6040 hc         1 3SP       0.035700
     43 H292         6.7170     0.5300    -3.6080 hc         1 3SP       0.035700
     44 H301         5.0430    -1.0570    -2.7330 hc         1 3SP       0.033450
     45 H302         4.2420     0.3590    -3.3930 hc         1 3SP       0.033450
     46 HN21         0.9620     1.2670     0.8800 hn         1 3SP       0.402800
     47 H221         1.9620     2.1390    -1.6790 h1         1 3SP       0.028200
     48 H222         0.4460     1.2590    -1.6530 h1         1 3SP       0.028200
     49 H13         -0.5760    -3.5800    -0.4790 h1         1 3SP       0.061700
     50 H141         0.0170    -4.4500     2.3590 hc         1 3SP       0.054200
     51 H142        -0.2020    -5.4540     0.9270 hc         1 3SP       0.054200
     52 H151         2.3090    -5.0330     1.8610 hc         1 3SP       0.047700
     53 H152         2.0380    -4.8890     0.1230 hc         1 3SP       0.047700
     54 H161         2.1470    -2.6340     2.1700 h1         1 3SP       0.051200
     55 H162         2.9800    -2.7380     0.6160 h1         1 3SP       0.051200
     56 H3          -6.4270    -1.0970     1.2420 ha         1 3SP       0.131000
     57 HN7         -4.8910     4.0250    -1.6930 hn         1 3SP       0.362400
     58 HN81        -2.2160     2.5940    -0.1630 hn         1 3SP       0.444800
     59 HN82        -2.6640     3.7690    -1.2740 hn         1 3SP       0.444800
     60 H91         -3.6700    -2.2860     2.4630 h1         1 3SP       0.055700
     61 H92         -4.6310    -3.1070     1.2520 h1         1 3SP       0.055700
     62 HN10        -2.7120    -3.3130    -0.1200 hn         1 3SP       0.314500
     63 C6          -4.1910     2.5080    -0.7960 ce         1 3SP       0.701800
     64 H2          -6.5780     1.3160     0.2100 ha         1 3SP       0.158000
@<TRIPOS>BOND
     1     1     2 2   
     2     1     3 1   
     3     1    16 1   
     4     3     4 1   
     5     3    11 1   
     6     3    32 1   
     7     4     5 1   
     8     4    33 1   
     9     4    34 1   
    10     5     6 1   
    11     5    10 1   
    12     5    35 1   
    13     6     7 1   
    14     6    36 1   
    15     6    37 1   
    16     7     8 1   
    17     7    38 1   
    18     7    39 1   
    19     8     9 1   
    20     8    40 1   
    21     8    41 1   
    22     9    10 1   
    23     9    42 1   
    24     9    43 1   
    25    10    44 1   
    26    10    45 1   
    27    11    12 1   
    28    11    46 1   
    29    12    13 1   
    30    12    47 1   
    31    12    48 1   
    32    13    14 1   
    33    13    15 1   
    34    16    17 1   
    35    16    22 1   
    36    17    18 1   
    37    17    20 1   
    38    17    49 1   
    39    18    19 2   
    40    18    31 1   
    41    20    21 1   
    42    20    50 1   
    43    20    51 1   
    44    21    22 1   
    45    21    52 1   
    46    21    53 1   
    47    22    54 1   
    48    22    55 1   
    49    23    24 2   
    50    23    27 1   
    51    23    63 1   
    52    24    25 1   
    53    24    64 1   
    54    25    26 2   
    55    25    56 1   
    56    26    27 1   
    57    26    30 1   
    58    28    57 1   
    59    28    63 2   
    60    29    58 1   
    61    29    59 1   
    62    29    63 1   
    63    30    31 1   
    64    30    60 1   
    65    30    61 1   
    66    31    62 1   
@<TRIPOS>SUBSTRUCTURE
     1 3SP         1 TEMP              0 ****  ****    0 ROOT
