@<TRIPOS>MOLECULE
3SQ
   19    20     1     0     0
SMALL
bcc


@<TRIPOS>ATOM
      1 C2          -2.3290     1.1480     0.0220 cc         1 3SQ      -0.246600
      2 C4          -1.4870     0.0640     0.0060 cd         1 3SQ       0.360800
      3 C5          -3.4770    -0.7120    -0.0150 cc         1 3SQ       0.393400
      4 C6          -0.0240     0.0410     0.0110 ca         1 3SQ      -0.115500
      5 C7           0.6630    -1.1740     0.0240 ca         1 3SQ      -0.089000
      6 C11          0.7230     1.2210     0.0040 ca         1 3SQ      -0.089000
      7 C10          2.1080     1.1960     0.0120 ca         1 3SQ      -0.173000
      8 C9           2.7500    -0.0280     0.0260 ca         1 3SQ       0.132900
      9 C8           2.0490    -1.2170     0.0310 ca         1 3SQ      -0.173000
     10 N1          -3.5870     0.6300     0.0090 na         1 3SQ      -0.298900
     11 N3          -2.2260    -1.0890    -0.0170 nd         1 3SQ      -0.671000
     12 F            4.0940    -0.0600     0.0350 f          1 3SQ      -0.146900
     13 H1          -2.1510     2.2100     0.0440 h4         1 3SQ       0.177000
     14 H2          -4.3370    -1.3640    -0.0320 h5         1 3SQ       0.057100
     15 H3           0.1040    -2.1010     0.0290 ha         1 3SQ       0.141500
     16 H4           0.2260     2.1830    -0.0090 ha         1 3SQ       0.141500
     17 H5           2.6780     2.1160     0.0070 ha         1 3SQ       0.148000
     18 H6           2.5720    -2.1640     0.0410 ha         1 3SQ       0.148000
     19 H7          -4.4450     1.1580     0.0090 hn         1 3SQ       0.303700
@<TRIPOS>BOND
     1     1     2 2   
     2     1    10 1   
     3     1    13 1   
     4     2     4 1   
     5     2    11 1   
     6     3    10 1   
     7     3    11 2   
     8     3    14 1   
     9     4     5 ar  
    10     4     6 ar  
    11     5     9 ar  
    12     5    15 1   
    13     6     7 ar  
    14     6    16 1   
    15     7     8 ar  
    16     7    17 1   
    17     8     9 ar  
    18     8    12 1   
    19     9    18 1   
    20    10    19 1   
@<TRIPOS>SUBSTRUCTURE
     1 3SQ         1 TEMP              0 ****  ****    0 ROOT
