@<TRIPOS>MOLECULE
3SQ
   19    20     1     0     0
SMALL
No Charge or Current Charge


@<TRIPOS>ATOM
      1 C2          -2.3180     1.1500     0.0040 cc         1 3SQ      -0.214000
      2 C4          -1.5090     0.0400     0.0070 cd         1 3SQ       0.295500
      3 C5          -3.5370    -0.7150    -0.0010 cc         1 3SQ       0.393400
      4 C6          -0.0290     0.0200     0.0140 ca         1 3SQ      -0.115500
      5 C7           0.6770    -1.2060     0.0170 ca         1 3SQ      -0.071000
      6 C11          0.7060     1.2270     0.0170 ca         1 3SQ      -0.071000
      7 C10          2.1130     1.2080     0.0230 ca         1 3SQ      -0.155000
      8 C9           2.7970    -0.0150     0.0260 ca         1 3SQ       0.168000
      9 C8           2.0830    -1.2220     0.0230 ca         1 3SQ      -0.155000
     10 N1          -3.6080     0.6560    -0.0020 na         1 3SQ      -0.298500
     11 N3          -2.2740    -1.1120     0.0040 nd         1 3SQ      -0.671000
     12 F            4.1470    -0.0320     0.0320 f          1 3SQ      -0.182000
     13 H1          -2.0850     2.2070     0.0050 h4         1 3SQ       0.159000
     14 H2          -4.4180    -1.3480    -0.0050 h5         1 3SQ       0.057100
     15 H3           0.1400    -2.1520     0.0150 ha         1 3SQ       0.123500
     16 H4           0.1960     2.1870     0.0140 ha         1 3SQ       0.123500
     17 H5           2.6720     2.1400     0.0250 ha         1 3SQ       0.130000
     18 H6           2.6190    -2.1670     0.0250 ha         1 3SQ       0.130000
     19 H7          -4.4690     1.1920    -0.0050 hn         1 3SQ       0.354000
@<TRIPOS>BOND
     1     1     2 2   
     2     1    10 1   
     3     1    13 1   
     4     2     4 1   
     5     2    11 1   
     6     3    10 1   
     7     3    11 2   
     8     3    14 1   
     9     4     5 ar  
    10     4     6 ar  
    11     5     9 ar  
    12     5    15 1   
    13     6     7 ar  
    14     6    16 1   
    15     7     8 ar  
    16     7    17 1   
    17     8     9 ar  
    18     8    12 1   
    19     9    18 1   
    20    10    19 1   
@<TRIPOS>SUBSTRUCTURE
     1 3SQ         1 TEMP              0 ****  ****    0 ROOT
