@<TRIPOS>MOLECULE
3SR
   62    65     1     0     0
SMALL
bcc


@<TRIPOS>ATOM
      1 C1          -4.1280     0.1610    -0.8060 c          1 3SR       0.772100
      2 C2          -3.0070     0.3820     0.0400 cc         1 3SR      -0.364200
      3 C3          -2.8940     1.4910     0.8360 cd         1 3SR       0.502200
      4 C5          -4.9750     2.3300     0.0820 c          1 3SR       0.830500
      5 C16         -1.8200    -4.1640     0.0650 c3         1 3SR      -0.054700
      6 C17         -2.4750    -5.2040     0.9680 c3         1 3SR      -0.090100
      7 C18         -2.1770    -4.4250    -1.3960 c3         1 3SR      -0.090100
      8 C21          1.4940     1.1790     0.0900 c6         1 3SR       0.138300
      9 O32          4.9310     2.1800    -0.7230 o          1 3SR      -0.583100
     10 C27          6.0590     0.1760    -0.4390 cc         1 3SR       0.166200
     11 O31          6.1780    -1.0680    -0.9550 os         1 3SR      -0.318800
     12 C30          7.4280    -1.4940    -0.7000 cc         1 3SR       0.247600
     13 C29          8.1230    -0.5460    -0.0260 cd         1 3SR      -0.280300
     14 C28          7.2320     0.5510     0.1350 cd         1 3SR      -0.196300
     15 N23          3.6420     0.3150    -0.7110 n          1 3SR      -0.467800
     16 C22          2.4410     1.0410    -1.0870 c6         1 3SR       0.098500
     17 C24          3.3410    -0.9860    -0.1330 c6         1 3SR       0.098500
     18 C25          2.3760    -0.8300     1.0320 c6         1 3SR       0.138300
     19 N20          1.1730    -0.1330     0.6200 n3         1 3SR      -0.733600
     20 C8          -1.1440     0.3580     1.1660 cc         1 3SR       0.452800
     21 N7          -1.8540    -0.3380     0.2630 na         1 3SR      -0.111900
     22 C14         -1.5330    -1.6540    -0.2680 c3         1 3SR       0.036300
     23 C15         -2.2280    -2.7600     0.5130 c3         1 3SR      -0.094400
     24 N9          -1.7470     1.4820     1.5310 nd         1 3SR      -0.713000
     25 N4          -3.8590     2.4560     0.8670 n          1 3SR      -0.426300
     26 C12         -3.7310     3.6310     1.7130 c3         1 3SR       0.102300
     27 O11         -5.8430     3.1830     0.0930 o          1 3SR      -0.631500
     28 N6          -5.0660     1.1940    -0.7200 n          1 3SR      -0.507400
     29 C13         -6.2480     1.0420    -1.5610 c3         1 3SR       0.085300
     30 O10         -4.3120    -0.7940    -1.5430 o          1 3SR      -0.614500
     31 H1          -0.7320    -4.2520     0.1750 hc         1 3SR       0.039700
     32 H2          -2.1640    -6.2140     0.6990 hc         1 3SR       0.036533
     33 H3          -2.2160    -5.0450     2.0170 hc         1 3SR       0.036533
     34 H4          -3.5640    -5.1590     0.8850 hc         1 3SR       0.036533
     35 H5          -1.6290    -3.7790    -2.0820 hc         1 3SR       0.036533
     36 H6          -1.9500    -5.4560    -1.6740 hc         1 3SR       0.036533
     37 H7          -3.2440    -4.2610    -1.5670 hc         1 3SR       0.036533
     38 H8           0.1000    -1.0750     2.1240 h1         1 3SR       0.062200
     39 H9           0.4690     0.6040     2.4950 h1         1 3SR       0.062200
     40 H10          1.9430     1.8310     0.8570 h1         1 3SR       0.048700
     41 H11          0.5830     1.6700    -0.2600 h1         1 3SR       0.048700
     42 H12          7.6840    -2.4790    -1.0560 h4         1 3SR       0.055100
     43 H13          9.1440    -0.6170     0.3100 ha         1 3SR       0.165000
     44 H14          7.4340     1.4920     0.6190 ha         1 3SR       0.174000
     45 H15          1.9430     0.4800    -1.8830 h1         1 3SR       0.068200
     46 H16          2.7060     2.0190    -1.4780 h1         1 3SR       0.068200
     47 H17          2.8940    -1.6230    -0.9010 h1         1 3SR       0.068200
     48 H18          4.2370    -1.4790     0.2280 h1         1 3SR       0.068200
     49 H19          2.1070    -1.8260     1.3900 h1         1 3SR       0.048700
     50 H20          2.8920    -0.3110     1.8580 h1         1 3SR       0.048700
     51 H22         -1.8180    -1.6690    -1.3180 h1         1 3SR       0.083200
     52 H23         -0.4500    -1.7590    -0.2290 h1         1 3SR       0.083200
     53 H24         -3.3120    -2.6500     0.4150 hc         1 3SR       0.053700
     54 H25         -1.9940    -2.6410     1.5750 hc         1 3SR       0.053700
     55 H26         -3.7160     4.5400     1.1140 h1         1 3SR       0.058367
     56 H27         -4.5510     3.6870     2.4250 h1         1 3SR       0.058367
     57 H28         -2.7960     3.5580     2.2590 h1         1 3SR       0.058367
     58 H29         -6.8960     1.8980    -1.4310 h1         1 3SR       0.057700
     59 H30         -5.9610     0.9740    -2.6080 h1         1 3SR       0.057700
     60 H31         -6.7950     0.1410    -1.2870 h1         1 3SR       0.057700
     61 C19          0.1870    -0.0790     1.6810 c3         1 3SR       0.134500
     62 C26          4.8230     0.9640    -0.6220 c          1 3SR       0.609600
@<TRIPOS>BOND
     1     1     2 1   
     2     1    28 1   
     3     1    30 2   
     4     2     3 2   
     5     2    21 1   
     6     3    24 1   
     7     3    25 1   
     8     4    25 1   
     9     4    27 2   
    10     4    28 1   
    11     5     6 1   
    12     5     7 1   
    13     5    23 1   
    14     5    31 1   
    15     6    32 1   
    16     6    33 1   
    17     6    34 1   
    18     7    35 1   
    19     7    36 1   
    20     7    37 1   
    21     8    16 1   
    22     8    19 1   
    23     8    40 1   
    24     8    41 1   
    25     9    62 2   
    26    10    11 1   
    27    10    14 2   
    28    10    62 1   
    29    11    12 1   
    30    12    13 2   
    31    12    42 1   
    32    13    14 1   
    33    13    43 1   
    34    14    44 1   
    35    15    16 1   
    36    15    17 1   
    37    15    62 1   
    38    16    45 1   
    39    16    46 1   
    40    17    18 1   
    41    17    47 1   
    42    17    48 1   
    43    18    19 1   
    44    18    49 1   
    45    18    50 1   
    46    19    61 1   
    47    20    21 1   
    48    20    24 2   
    49    20    61 1   
    50    21    22 1   
    51    22    23 1   
    52    22    51 1   
    53    22    52 1   
    54    23    53 1   
    55    23    54 1   
    56    25    26 1   
    57    26    55 1   
    58    26    56 1   
    59    26    57 1   
    60    28    29 1   
    61    29    58 1   
    62    29    59 1   
    63    29    60 1   
    64    38    61 1   
    65    39    61 1   
@<TRIPOS>SUBSTRUCTURE
     1 3SR         1 TEMP              0 ****  ****    0 ROOT
