@<TRIPOS>MOLECULE
3SR
   62    65     1     0     0
SMALL
No Charge or Current Charge


@<TRIPOS>ATOM
      1 C1          -4.2220     0.2450    -0.9160 c          1 3SR       0.629600
      2 C2          -3.1540     0.4590     0.0610 cc         1 3SR      -0.349600
      3 C3          -3.1850     1.4970     0.9350 cd         1 3SR       0.436900
      4 C5          -5.2860     2.2590     0.0500 c          1 3SR       0.621000
      5 C16         -1.5080    -4.0550    -0.3380 c3         1 3SR      -0.054700
      6 C17         -1.9950    -5.2910     0.4500 c3         1 3SR      -0.090100
      7 C18         -1.8450    -4.1950    -1.8420 c3         1 3SR      -0.090100
      8 C21          1.4690     1.4120     0.6720 c6         1 3SR       0.138300
      9 O32          5.0800     1.6930    -1.6020 o          1 3SR      -0.583100
     10 C27          6.0990    -0.2900    -0.7760 cc         1 3SR       0.056500
     11 O31          6.1130    -1.4520    -0.0250 os         1 3SR      -0.230000
     12 C30          7.3070    -2.0880    -0.2800 cc         1 3SR       0.137900
     13 C29          8.0320    -1.3510    -1.1750 cd         1 3SR      -0.197000
     14 C28          7.2660    -0.2120    -1.4930 cd         1 3SR      -0.113000
     15 N23          3.8240     0.5760    -0.0430 n          1 3SR      -0.400800
     16 C22          2.6220     1.4180    -0.3640 c6         1 3SR       0.098500
     17 C24          3.5790    -0.6020     0.8540 c6         1 3SR       0.098500
     18 C25          2.3550    -0.5160     1.8050 c6         1 3SR       0.138300
     19 N20          1.1520     0.0440     1.1480 n3         1 3SR      -0.733600
     20 C8          -1.3700     0.4250     1.3850 cc         1 3SR       0.452800
     21 N7          -1.9870    -0.2350     0.3360 na         1 3SR      -0.090500
     22 C14         -1.5010    -1.4510    -0.3430 c3         1 3SR       0.065600
     23 C15         -2.0660    -2.7470     0.2820 c3         1 3SR      -0.094400
     24 N9          -2.0860     1.4780     1.7590 nd         1 3SR      -0.713000
     25 N4          -4.2170     2.4010     0.9470 n          1 3SR      -0.359300
     26 C12         -4.2410     3.5250     1.9150 c3         1 3SR       0.102300
     27 O11         -6.2270     3.0430     0.0720 o          1 3SR      -0.556000
     28 N6          -5.2480     1.1960    -0.8670 n          1 3SR      -0.373400
     29 C13         -6.3810     1.0580    -1.8240 c3         1 3SR       0.085300
     30 O10         -4.2220    -0.6890    -1.7060 o          1 3SR      -0.539000
     31 H1          -0.4140    -4.0260    -0.2480 hc         1 3SR       0.039700
     32 H2          -1.5560    -6.2100     0.0430 hc         1 3SR       0.036533
     33 H3          -1.7050    -5.2190     1.5050 hc         1 3SR       0.036533
     34 H4          -3.0870    -5.3820     0.4000 hc         1 3SR       0.036533
     35 H5          -1.3820    -3.3940    -2.4300 hc         1 3SR       0.036533
     36 H6          -1.4710    -5.1480    -2.2350 hc         1 3SR       0.036533
     37 H7          -2.9300    -4.1610    -2.0040 hc         1 3SR       0.036533
     38 H8          -0.2020    -1.0290     2.3960 h1         1 3SR       0.062200
     39 H9           0.1040     0.6220     2.9170 h1         1 3SR       0.062200
     40 H10          1.7550     2.0510     1.5210 h1         1 3SR       0.048700
     41 H11          0.5890     1.8790     0.2050 h1         1 3SR       0.048700
     42 H12          7.5050    -3.0250     0.2250 h4         1 3SR       0.055100
     43 H13          9.0120    -1.6060    -1.5640 ha         1 3SR       0.147000
     44 H14          7.5430     0.5830    -2.1800 ha         1 3SR       0.156000
     45 H15          2.2160     1.0660    -1.3220 h1         1 3SR       0.068200
     46 H16          2.9330     2.4610    -0.5160 h1         1 3SR       0.068200
     47 H17          3.4620    -1.4950     0.2240 h1         1 3SR       0.068200
     48 H18          4.4530    -0.7570     1.4980 h1         1 3SR       0.068200
     49 H19          2.1480    -1.5230     2.1950 h1         1 3SR       0.048700
     50 H20          2.6310     0.1070     2.6700 h1         1 3SR       0.048700
     51 H22         -1.7780    -1.3930    -1.4020 h1         1 3SR       0.083200
     52 H23         -0.4050    -1.4760    -0.3010 h1         1 3SR       0.083200
     53 H24         -3.1600    -2.7390     0.1950 hc         1 3SR       0.053700
     54 H25         -1.8380    -2.7400     1.3550 hc         1 3SR       0.053700
     55 H26         -4.4790     4.4620     1.3960 h1         1 3SR       0.058367
     56 H27         -5.0050     3.3350     2.6790 h1         1 3SR       0.058367
     57 H28         -3.2690     3.6460     2.4090 h1         1 3SR       0.058367
     58 H29         -6.7440     2.0440    -2.1410 h1         1 3SR       0.057700
     59 H30         -6.0770     0.5150    -2.7280 h1         1 3SR       0.057700
     60 H31         -7.2040     0.5130    -1.3420 h1         1 3SR       0.057700
     61 C19         -0.0570    -0.0040     2.0300 c3         1 3SR       0.134500
     62 C26          4.9920     0.7280    -0.8480 c          1 3SR       0.542600
@<TRIPOS>BOND
     1     1     2 1   
     2     1    28 1   
     3     1    30 2   
     4     2     3 2   
     5     2    21 1   
     6     3    24 1   
     7     3    25 1   
     8     4    25 1   
     9     4    27 2   
    10     4    28 1   
    11     5     6 1   
    12     5     7 1   
    13     5    23 1   
    14     5    31 1   
    15     6    32 1   
    16     6    33 1   
    17     6    34 1   
    18     7    35 1   
    19     7    36 1   
    20     7    37 1   
    21     8    16 1   
    22     8    19 1   
    23     8    40 1   
    24     8    41 1   
    25     9    62 2   
    26    10    11 1   
    27    10    14 2   
    28    10    62 1   
    29    11    12 1   
    30    12    13 2   
    31    12    42 1   
    32    13    14 1   
    33    13    43 1   
    34    14    44 1   
    35    15    16 1   
    36    15    17 1   
    37    15    62 1   
    38    16    45 1   
    39    16    46 1   
    40    17    18 1   
    41    17    47 1   
    42    17    48 1   
    43    18    19 1   
    44    18    49 1   
    45    18    50 1   
    46    19    61 1   
    47    20    21 1   
    48    20    24 2   
    49    20    61 1   
    50    21    22 1   
    51    22    23 1   
    52    22    51 1   
    53    22    52 1   
    54    23    53 1   
    55    23    54 1   
    56    25    26 1   
    57    26    55 1   
    58    26    56 1   
    59    26    57 1   
    60    28    29 1   
    61    29    58 1   
    62    29    59 1   
    63    29    60 1   
    64    38    61 1   
    65    39    61 1   
@<TRIPOS>SUBSTRUCTURE
     1 3SR         1 TEMP              0 ****  ****    0 ROOT
