@<TRIPOS>MOLECULE
3SS
   12    11     1     0     0
SMALL
No Charge or Current Charge


@<TRIPOS>ATOM
      1 C1          -0.6790     0.3360    -0.3660 c3         1 3SS      -0.223400
      2 C2          -0.0280    -1.0320    -0.0860 c3         1 3SS       0.125600
      3 C4          -2.1480     0.2680     0.0540 c          1 3SS       0.725000
      4 O5          -2.4290     0.5440     1.2100 o          1 3SS      -0.731000
      5 O6          -2.9620    -0.1220    -0.7680 o          1 3SS      -0.731000
      6 S7           1.7420    -1.0530    -0.6350 ss         1 3SS      -0.312000
      7 S1           2.6980     0.2670     0.6870 sh         1 3SS      -0.283800
      8 H1          -0.1370     1.0690     0.2430 hc         1 3SS       0.030200
      9 H2          -0.5900     0.4990    -1.4470 hc         1 3SS       0.030200
     10 H3          -0.0760    -1.2630     0.9870 h1         1 3SS       0.079700
     11 H4          -0.5720    -1.8160    -0.6290 h1         1 3SS       0.079700
     12 H6           2.5540     1.4350     0.0110 hs         1 3SS       0.209800
@<TRIPOS>BOND
     1     1     2 1   
     2     1     3 1   
     3     1     8 1   
     4     1     9 1   
     5     2     6 1   
     6     2    10 1   
     7     2    11 1   
     8     3     4 1   
     9     3     5 1   
    10     6     7 1   
    11     7    12 1   
@<TRIPOS>SUBSTRUCTURE
     1 3SS         1 TEMP              0 ****  ****    0 ROOT
