@<TRIPOS>MOLECULE
3SS
   12    11     1     0     0
SMALL
abcg2


@<TRIPOS>ATOM
      1 C1          -0.6870     0.1560    -0.4150 c3         1 3SS      -0.223400
      2 C2           0.0380    -0.9850     0.2650 c3         1 3SS       0.125600
      3 C4          -2.1880     0.2490    -0.0700 c          1 3SS       0.725000
      4 O5          -2.6340    -0.5520     0.7730 o          1 3SS      -0.731000
      5 O6          -2.8270     1.1340    -0.6710 o          1 3SS      -0.731000
      6 S7           1.7820    -1.1500    -0.2410 ss         1 3SS      -0.312000
      7 S1           2.6500     0.5720     0.4800 sh         1 3SS      -0.283800
      8 H1          -0.2170     1.1070    -0.1410 hc         1 3SS       0.030200
      9 H2          -0.5740     0.0730    -1.5000 hc         1 3SS       0.030200
     10 H3          -0.0060    -0.9120     1.3510 h1         1 3SS       0.079700
     11 H4          -0.3920    -1.9500    -0.0140 h1         1 3SS       0.079700
     12 H6           2.4270     1.3930    -0.5570 hs         1 3SS       0.209800
@<TRIPOS>BOND
     1     1     2 1   
     2     1     3 1   
     3     1     8 1   
     4     1     9 1   
     5     2     6 1   
     6     2    10 1   
     7     2    11 1   
     8     3     4 1   
     9     3     5 1   
    10     6     7 1   
    11     7    12 1   
@<TRIPOS>SUBSTRUCTURE
     1 3SS         1 TEMP              0 ****  ****    0 ROOT
