@<TRIPOS>MOLECULE
3ST
   58    60     1     0     0
SMALL
bcc


@<TRIPOS>ATOM
      1 C1          -3.2590     0.2000    -0.8040 c          1 3ST       0.779100
      2 C2          -2.0840     0.3910    -0.0240 cc         1 3ST      -0.368200
      3 C3          -1.9150     1.4590     0.8170 cd         1 3ST       0.502200
      4 C8          -0.1570     0.3040     0.9870 cc         1 3ST       0.456800
      5 N9          -0.9240    -0.3440     0.0950 na         1 3ST      -0.111900
      6 C10         -0.6310    -1.6300    -0.5200 c3         1 3ST       0.033300
      7 C11         -1.2400    -2.7840     0.2630 c3         1 3ST      -0.093400
      8 C15          1.1860    -0.1820     1.4260 c3         1 3ST       0.134500
      9 C17          2.5050     1.0290    -0.1860 c6         1 3ST       0.166300
     10 C18          3.3420     0.8810    -1.4440 c6         1 3ST      -0.062900
     11 C20          4.1650    -1.2910    -0.5610 c6         1 3ST      -0.062900
     12 C21          3.2700    -1.0930     0.6530 c6         1 3ST       0.166300
     13 C22          5.6590     0.7510    -0.3770 c          1 3ST       0.670100
     14 O28         -3.4780    -0.7290    -1.5630 o          1 3ST      -0.617500
     15 N6          -4.1860     1.2290    -0.6020 n          1 3ST      -0.508400
     16 C5          -4.0300     2.3310     0.2330 c          1 3ST       0.825500
     17 O26         -4.8990     3.1790     0.3180 o          1 3ST      -0.632500
     18 N4          -2.8700     2.4260     0.9530 n          1 3ST      -0.426300
     19 C27         -2.6810     3.5680     1.8310 c3         1 3ST       0.103300
     20 N7          -0.7290     1.4120     1.4410 nd         1 3ST      -0.716000
     21 C12         -0.7890    -4.1580    -0.2340 c3         1 3ST      -0.056700
     22 N16          2.1150    -0.2750     0.3210 n3         1 3ST      -0.741600
     23 C19          4.5930     0.0290    -1.1960 c6         1 3ST      -0.145700
     24 N23          6.0290     1.9520    -0.8540 nt         1 3ST      -0.676000
     25 H1          -1.0060    -1.6140    -1.5410 h1         1 3ST       0.085200
     26 H2           0.4520    -1.7000    -0.5770 h1         1 3ST       0.085200
     27 H3          -0.9760    -2.6830     1.3220 hc         1 3ST       0.053700
     28 H4          -2.3300    -2.7150     0.2070 hc         1 3ST       0.053700
     29 H5           1.3110    -3.6870    -0.6650 hc         1 3ST       0.034700
     30 H6           1.0060    -4.2230     0.9880 hc         1 3ST       0.034700
     31 H7           1.0000    -5.3810    -0.3400 hc         1 3ST       0.034700
     32 H8          -2.6430    -5.1410     0.3370 hc         1 3ST       0.034700
     33 H9          -1.2800    -6.2420     0.1440 hc         1 3ST       0.034700
     34 H10         -1.3840    -5.2080     1.5690 hc         1 3ST       0.034700
     35 H11          1.5330     0.4820     2.2310 h1         1 3ST       0.062700
     36 H12          1.0790    -1.1750     1.8730 h1         1 3ST       0.062700
     37 H13          3.0580     1.6080     0.5760 h1         1 3ST       0.044950
     38 H14          1.6090     1.6060    -0.4240 h1         1 3ST       0.044950
     39 H15          2.7380     0.3860    -2.2080 hc         1 3ST       0.052950
     40 H16          3.5870     1.8690    -1.8380 hc         1 3ST       0.052950
     41 H17          5.0300    -1.8920    -0.2790 hc         1 3ST       0.052950
     42 H18          3.6120    -1.8620    -1.3120 hc         1 3ST       0.052950
     43 H19          2.9110    -2.0680     0.9940 h1         1 3ST       0.044950
     44 H20          3.8470    -0.6580     1.4830 h1         1 3ST       0.044950
     45 H21         -6.2900     1.1710    -0.6440 h1         1 3ST       0.057033
     46 H22         -5.5420     2.0380    -1.9950 h1         1 3ST       0.057033
     47 H23         -5.4710     0.2750    -1.9260 h1         1 3ST       0.057033
     48 H24         -2.6910     4.4970     1.2650 h1         1 3ST       0.057700
     49 H25         -3.4590     3.6050     2.5900 h1         1 3ST       0.057700
     50 H26         -1.7190     3.4670     2.3210 h1         1 3ST       0.057700
     51 H27         -1.0220    -4.2290    -1.3030 hc         1 3ST       0.051700
     52 H29          5.0560    -0.1830    -2.1660 hc         1 3ST       0.062700
     53 H30          6.7800     2.4590    -0.4150 hn         1 3ST       0.312000
     54 H31          5.6880     2.3070    -1.7300 hn         1 3ST       0.312000
     55 C25         -5.4480     1.1810    -1.3330 c3         1 3ST       0.085300
     56 O24          6.1640     0.2700     0.6280 o          1 3ST      -0.607100
     57 C13          0.7130    -4.3680    -0.0560 c3         1 3ST      -0.090100
     58 C14         -1.5690    -5.2490     0.4920 c3         1 3ST      -0.090100
@<TRIPOS>BOND
     1     1     2 1   
     2     1    14 2   
     3     1    15 1   
     4     2     3 2   
     5     2     5 1   
     6     3    18 1   
     7     3    20 1   
     8     4     5 1   
     9     4     8 1   
    10     4    20 2   
    11     5     6 1   
    12     6     7 1   
    13     6    25 1   
    14     6    26 1   
    15     7    21 1   
    16     7    27 1   
    17     7    28 1   
    18     8    22 1   
    19     8    35 1   
    20     8    36 1   
    21     9    10 1   
    22     9    22 1   
    23     9    37 1   
    24     9    38 1   
    25    10    23 1   
    26    10    39 1   
    27    10    40 1   
    28    11    12 1   
    29    11    23 1   
    30    11    41 1   
    31    11    42 1   
    32    12    22 1   
    33    12    43 1   
    34    12    44 1   
    35    13    23 1   
    36    13    24 1   
    37    13    56 2   
    38    15    16 1   
    39    15    55 1   
    40    16    17 2   
    41    16    18 1   
    42    18    19 1   
    43    19    48 1   
    44    19    49 1   
    45    19    50 1   
    46    21    51 1   
    47    21    57 1   
    48    21    58 1   
    49    23    52 1   
    50    24    53 1   
    51    24    54 1   
    52    29    57 1   
    53    30    57 1   
    54    31    57 1   
    55    32    58 1   
    56    33    58 1   
    57    34    58 1   
    58    45    55 1   
    59    46    55 1   
    60    47    55 1   
@<TRIPOS>SUBSTRUCTURE
     1 3ST         1 TEMP              0 ****  ****    0 ROOT
