@<TRIPOS>MOLECULE
3ST
   58    60     1     0     0
SMALL
No Charge or Current Charge


@<TRIPOS>ATOM
      1 C1          -3.4720     0.2320    -0.6880 c          1 3ST       0.636600
      2 C2          -2.2410     0.4330     0.0770 cc         1 3ST      -0.353600
      3 C3          -2.0750     1.5080     0.8890 cd         1 3ST       0.436900
      4 C8          -0.2560     0.3670     1.0740 cc         1 3ST       0.456800
      5 N9          -1.0720    -0.3040     0.1780 na         1 3ST      -0.090500
      6 C10         -0.7550    -1.5660    -0.5190 c3         1 3ST       0.062600
      7 C11         -1.1600    -2.8150     0.2960 c3         1 3ST      -0.093400
      8 C15          1.1250    -0.1070     1.5180 c3         1 3ST       0.134500
      9 C17          2.4570     1.0470    -0.2450 c6         1 3ST       0.166300
     10 C18          3.3960     0.8380    -1.4580 c6         1 3ST      -0.062900
     11 C20          4.3730    -1.2060    -0.2480 c6         1 3ST      -0.062900
     12 C21          3.3900    -0.9250     0.9170 c6         1 3ST       0.166300
     13 C22          5.7510     0.9990    -0.3850 c          1 3ST       0.603100
     14 O28         -3.6450    -0.7280    -1.4260 o          1 3ST      -0.542000
     15 N6          -4.4350     1.2320    -0.5070 n          1 3ST      -0.374400
     16 C5          -4.2500     2.3560     0.3130 c          1 3ST       0.616000
     17 O26         -5.1120     3.2210     0.4070 o          1 3ST      -0.557000
     18 N4          -3.0470     2.4670     1.0260 n          1 3ST      -0.359300
     19 C27         -2.8460     3.6440     1.9070 c3         1 3ST       0.103300
     20 N7          -0.8500     1.4710     1.5090 nd         1 3ST      -0.716000
     21 C12         -0.8340    -4.1650    -0.3970 c3         1 3ST      -0.056700
     22 N16          2.1520    -0.2460     0.4380 n3         1 3ST      -0.741600
     23 C19          4.6880     0.0890    -1.0410 c6         1 3ST      -0.145700
     24 N23          6.8400     1.2900    -1.1290 nt         1 3ST      -0.609000
     25 H1          -1.2660    -1.5780    -1.4880 h1         1 3ST       0.085200
     26 H2           0.3190    -1.5900    -0.7290 h1         1 3ST       0.085200
     27 H3          -0.6650    -2.7840     1.2740 hc         1 3ST       0.053700
     28 H4          -2.2390    -2.7640     0.4880 hc         1 3ST       0.053700
     29 H5           1.0880    -3.6140    -1.3120 hc         1 3ST       0.034700
     30 H6           1.2350    -4.3030     0.3200 hc         1 3ST       0.034700
     31 H7           0.8800    -5.3510    -1.0690 hc         1 3ST       0.034700
     32 H8          -2.5140    -5.2350     0.5110 hc         1 3ST       0.034700
     33 H9          -1.2440    -6.2980    -0.1220 hc         1 3ST       0.034700
     34 H10         -0.9830    -5.4130     1.3970 hc         1 3ST       0.034700
     35 H11          1.4890     0.5840     2.2890 h1         1 3ST       0.062700
     36 H12          0.9820    -1.0760     2.0140 h1         1 3ST       0.062700
     37 H13          2.9230     1.7510     0.4610 h1         1 3ST       0.044950
     38 H14          1.5320     1.5210    -0.6050 h1         1 3ST       0.044950
     39 H15          2.8630     0.2530    -2.2200 hc         1 3ST       0.052950
     40 H16          3.6410     1.8040    -1.9200 hc         1 3ST       0.052950
     41 H17          5.2970    -1.6600     0.1350 hc         1 3ST       0.052950
     42 H18          3.9180    -1.9460    -0.9210 hc         1 3ST       0.052950
     43 H19          3.1370    -1.8830     1.3950 h1         1 3ST       0.044950
     44 H20          3.8920    -0.3120     1.6800 h1         1 3ST       0.044950
     45 H21         -6.5530     1.4980    -0.6470 h1         1 3ST       0.057033
     46 H22         -5.6600     1.6890    -2.1830 h1         1 3ST       0.057033
     47 H23         -5.9470     0.0670    -1.4910 h1         1 3ST       0.057033
     48 H24         -2.7460     4.5490     1.2930 h1         1 3ST       0.057700
     49 H25         -3.7070     3.7600     2.5770 h1         1 3ST       0.057700
     50 H26         -1.9450     3.5350     2.5220 h1         1 3ST       0.057700
     51 H27         -1.3190    -4.1610    -1.3820 hc         1 3ST       0.051700
     52 H29          5.1440    -0.2370    -1.9870 hc         1 3ST       0.062700
     53 H30          7.5560     1.8860    -0.7430 hn         1 3ST       0.312000
     54 H31          6.9320     0.9130    -2.0610 hn         1 3ST       0.312000
     55 C25         -5.7210     1.1140    -1.2500 c3         1 3ST       0.085300
     56 O24          5.6410     1.4640     0.7370 o          1 3ST      -0.607100
     57 C13          0.6840    -4.3670    -0.6270 c3         1 3ST      -0.090100
     58 C14         -1.4290    -5.3500     0.3970 c3         1 3ST      -0.090100
@<TRIPOS>BOND
     1     1     2 1   
     2     1    14 2   
     3     1    15 1   
     4     2     3 2   
     5     2     5 1   
     6     3    18 1   
     7     3    20 1   
     8     4     5 1   
     9     4     8 1   
    10     4    20 2   
    11     5     6 1   
    12     6     7 1   
    13     6    25 1   
    14     6    26 1   
    15     7    21 1   
    16     7    27 1   
    17     7    28 1   
    18     8    22 1   
    19     8    35 1   
    20     8    36 1   
    21     9    10 1   
    22     9    22 1   
    23     9    37 1   
    24     9    38 1   
    25    10    23 1   
    26    10    39 1   
    27    10    40 1   
    28    11    12 1   
    29    11    23 1   
    30    11    41 1   
    31    11    42 1   
    32    12    22 1   
    33    12    43 1   
    34    12    44 1   
    35    13    23 1   
    36    13    24 1   
    37    13    56 2   
    38    15    16 1   
    39    15    55 1   
    40    16    17 2   
    41    16    18 1   
    42    18    19 1   
    43    19    48 1   
    44    19    49 1   
    45    19    50 1   
    46    21    51 1   
    47    21    57 1   
    48    21    58 1   
    49    23    52 1   
    50    24    53 1   
    51    24    54 1   
    52    29    57 1   
    53    30    57 1   
    54    31    57 1   
    55    32    58 1   
    56    33    58 1   
    57    34    58 1   
    58    45    55 1   
    59    46    55 1   
    60    47    55 1   
@<TRIPOS>SUBSTRUCTURE
     1 3ST         1 TEMP              0 ****  ****    0 ROOT
