@<TRIPOS>MOLECULE
3SU
   23    24     1     0     0
SMALL
bcc


@<TRIPOS>ATOM
      1 OAM         -6.0140     0.8390     0.2060 o          1 3SU      -0.806300
      2 CAL         -4.8640     1.2490    -0.0410 c          1 3SU       0.928800
      3 OAN         -4.5200     2.4020    -0.3550 o          1 3SU      -0.806300
      4 CAJ         -3.7760     0.1840     0.0420 ce         1 3SU       0.000400
      5 SAP         -4.4360    -1.3540     0.5920 sh         1 3SU      -0.305400
      6 CAI         -2.5050     0.4530    -0.2870 cf         1 3SU      -0.183000
      7 CAH         -1.3410    -0.4050    -0.3660 cd         1 3SU      -0.042200
      8 CAE          0.0140     0.0620    -0.2440 ca         1 3SU      -0.084800
      9 CAD          0.5830     1.3090     0.0240 ca         1 3SU      -0.055000
     10 CAC          1.9580     1.4300     0.0800 ca         1 3SU      -0.161000
     11 CAB          2.7680     0.3030    -0.1270 ca         1 3SU       0.002100
     12 BR           4.6470     0.5140    -0.0420 br         1 3SU      -0.143100
     13 CAG          2.2510    -0.9490    -0.3900 ca         1 3SU      -0.133000
     14 CAF          0.8620    -1.0450    -0.4450 ca         1 3SU      -0.056200
     15 NAA          0.0670    -2.1250    -0.6860 na         1 3SU      -0.177400
     16 CAK         -1.2410    -1.7500    -0.6400 cc         1 3SU      -0.141100
     17 H2          -2.3200     1.4960    -0.5270 ha         1 3SU       0.158000
     18 H4          -0.0380     2.1810     0.1920 ha         1 3SU       0.151000
     19 H5           2.4040     2.3930     0.2880 ha         1 3SU       0.136000
     20 H6           2.8820    -1.8130    -0.5470 ha         1 3SU       0.134000
     21 H7           0.3850    -3.0600    -0.8760 hn         1 3SU       0.288700
     22 H8          -2.0100    -2.4730    -0.8570 h4         1 3SU       0.168000
     23 H9          -3.2770    -1.9770     0.8500 hs         1 3SU       0.126800
@<TRIPOS>BOND
     1     1     2 1   
     2     2     3 1   
     3     2     4 1   
     4     4     5 1   
     5     4     6 2   
     6     5    23 1   
     7     6     7 1   
     8     6    17 1   
     9     7     8 1   
    10     7    16 2   
    11     8     9 ar  
    12     8    14 ar  
    13     9    10 ar  
    14     9    18 1   
    15    10    11 ar  
    16    10    19 1   
    17    11    12 1   
    18    11    13 ar  
    19    13    14 ar  
    20    13    20 1   
    21    14    15 1   
    22    15    16 1   
    23    15    21 1   
    24    16    22 1   
@<TRIPOS>SUBSTRUCTURE
     1 3SU         1 TEMP              0 ****  ****    0 ROOT
