@<TRIPOS>MOLECULE
3SU
   23    24     1     0     0
SMALL
No Charge or Current Charge


@<TRIPOS>ATOM
      1 OAM         -5.9260     1.0180     0.6040 o          1 3SU      -0.701000
      2 CAL         -4.8660     1.2650     0.0410 c          1 3SU       0.718200
      3 OAN         -4.6790     2.3160    -0.5620 o          1 3SU      -0.701000
      4 CAJ         -3.7410     0.2310     0.0900 ce         1 3SU       0.000400
      5 SAP         -4.0280    -1.3210     0.9990 sh         1 3SU      -0.305400
      6 CAI         -2.5290     0.4520    -0.5110 cf         1 3SU      -0.233000
      7 CAH         -1.3510    -0.4160    -0.5370 cd         1 3SU      -0.042200
      8 CAE         -0.0010     0.0430    -0.3100 ca         1 3SU      -0.084800
      9 CAD          0.5120     1.3050     0.0180 ca         1 3SU      -0.037000
     10 CAC          1.9110     1.4200     0.1790 ca         1 3SU      -0.143000
     11 CAB          2.7440     0.2870     0.0140 ca         1 3SU       0.002100
     12 Br           4.6340     0.4620     0.2370 br         1 3SU      -0.143100
     13 CAG          2.1930    -0.9710    -0.3130 ca         1 3SU      -0.115000
     14 CAF          0.8030    -1.0520    -0.4670 ca         1 3SU      -0.056200
     15 NAA          0.0220    -2.1500    -0.7810 na         1 3SU      -0.227700
     16 CAK         -1.3380    -1.7730    -0.8380 cc         1 3SU      -0.191100
     17 H2          -2.3750     1.4190    -0.9930 ha         1 3SU       0.208000
     18 H4          -0.1410     2.1650     0.1450 ha         1 3SU       0.133000
     19 H5           2.3470     2.3830     0.4330 ha         1 3SU       0.118000
     20 H6           2.8260    -1.8450    -0.4410 ha         1 3SU       0.116000
     21 H7           0.3810    -3.0850    -0.9550 hn         1 3SU       0.339000
     22 H8          -2.1410    -2.4590    -1.0920 h4         1 3SU       0.218000
     23 H9          -2.7790    -1.8280     0.8850 hs         1 3SU       0.126800
@<TRIPOS>BOND
     1     1     2 1   
     2     2     3 1   
     3     2     4 1   
     4     4     5 1   
     5     4     6 2   
     6     5    23 1   
     7     6     7 1   
     8     6    17 1   
     9     7     8 1   
    10     7    16 2   
    11     8     9 ar  
    12     8    14 ar  
    13     9    10 ar  
    14     9    18 1   
    15    10    11 ar  
    16    10    19 1   
    17    11    12 1   
    18    11    13 ar  
    19    13    14 ar  
    20    13    20 1   
    21    14    15 1   
    22    15    16 1   
    23    15    21 1   
    24    16    22 1   
@<TRIPOS>SUBSTRUCTURE
     1 3SU         1 TEMP              0 ****  ****    0 ROOT
