@<TRIPOS>MOLECULE
3SV
   64    64     1     0     0
SMALL
bcc


@<TRIPOS>ATOM
      1 C5           4.3200    -3.7450    -0.7940 c3         1 3SV      -0.086600
      2 C3           2.9920    -3.2260    -0.2510 c3         1 3SV      -0.061700
      3 C4           2.4200    -4.1990     0.7760 c3         1 3SV      -0.086600
      4 C2           3.1210    -1.8300     0.3570 c3         1 3SV      -0.072400
      5 C1           3.6120    -0.7550    -0.6150 c3         1 3SV      -0.039200
      6 C21          3.5410     0.6350    -0.0270 ce         1 3SV      -0.058200
      7 C18          4.6170     1.1870     0.5690 c2         1 3SV      -0.120400
      8 C6           5.9370     0.4770     0.7220 c3         1 3SV      -0.038200
      9 C7           6.9090     0.7870    -0.4170 c3         1 3SV      -0.085100
     10 C16          4.6120     2.5830     1.1250 c6         1 3SV      -0.035200
     11 C17          3.4520     3.4150     0.6160 c6         1 3SV      -0.071400
     12 C15          2.1610     2.6220     0.7390 c6         1 3SV      -0.037200
     13 C22          2.2370     1.3340    -0.0440 ce         1 3SV      -0.088200
     14 C23          1.1650     0.8310    -0.6750 c2         1 3SV      -0.144200
     15 C8          -0.2320     1.3820    -0.7120 c3         1 3SV      -0.030500
     16 C19         -0.4920     2.0580    -2.0610 c3         1 3SV      -0.081100
     17 C9          -1.2200     0.2390    -0.4400 c3         1 3SV      -0.072400
     18 C10         -2.6840     0.6530    -0.3600 c3         1 3SV      -0.073400
     19 C11         -3.5850    -0.5150     0.0280 c3         1 3SV      -0.075400
     20 C12         -5.0860    -0.2300    -0.0380 c3         1 3SV      -0.041700
     21 C20         -5.4850     0.9140     0.8900 c3         1 3SV      -0.073100
     22 C13         -5.8750    -1.4950     0.2840 c3         1 3SV      -0.201400
     23 C14         -7.3940    -1.4270     0.0450 c          1 3SV       0.925600
     24 O1          -8.1050    -2.1680     0.7570 o          1 3SV      -0.848300
     25 O2          -7.8000    -0.6730    -0.8630 o          1 3SV      -0.848300
     26 H1           4.2190    -4.7660    -1.1670 hc         1 3SV       0.030367
     27 H2           4.6960    -3.1370    -1.6170 hc         1 3SV       0.030367
     28 H3           5.0830    -3.7540    -0.0120 hc         1 3SV       0.030367
     29 H4           2.2840    -3.1640    -1.0870 hc         1 3SV       0.047700
     30 H5           3.0940    -4.3020     1.6310 hc         1 3SV       0.030367
     31 H6           1.4550    -3.8580     1.1550 hc         1 3SV       0.030367
     32 H7           2.2770    -5.1920     0.3460 hc         1 3SV       0.030367
     33 H8           2.1480    -1.5280     0.7590 hc         1 3SV       0.044200
     34 H9           3.8050    -1.8720     1.2130 hc         1 3SV       0.044200
     35 H10          4.6330    -0.9790    -0.9250 hc         1 3SV       0.043200
     36 H11          3.0240    -0.8050    -1.5350 hc         1 3SV       0.043200
     37 H12          6.3910     0.7980     1.6640 hc         1 3SV       0.041200
     38 H13          5.8070    -0.6030     0.8080 hc         1 3SV       0.041200
     39 H14          7.0700     1.8610    -0.5210 hc         1 3SV       0.030033
     40 H15          7.8810     0.3250    -0.2370 hc         1 3SV       0.030033
     41 H16          6.5330     0.4140    -1.3710 hc         1 3SV       0.030033
     42 H17          4.5850     2.5330     2.2210 hc         1 3SV       0.040200
     43 H18          5.5650     3.0660     0.8820 hc         1 3SV       0.040200
     44 H19          3.3780     4.3510     1.1730 hc         1 3SV       0.039200
     45 H20          3.6190     3.6810    -0.4320 hc         1 3SV       0.039200
     46 H21          1.9850     2.3950     1.7970 hc         1 3SV       0.048200
     47 H22          1.3180     3.2290     0.4080 hc         1 3SV       0.048200
     48 H23          1.2700    -0.0940    -1.2340 ha         1 3SV       0.119000
     49 H24         -0.3670     2.1290     0.0760 hc         1 3SV       0.048700
     50 H25         -0.4050     1.3400    -2.8800 hc         1 3SV       0.032367
     51 H26         -1.4880     2.5000    -2.1090 hc         1 3SV       0.032367
     52 H27          0.2310     2.8550    -2.2390 hc         1 3SV       0.032367
     53 H28         -1.0990    -0.5250    -1.2170 hc         1 3SV       0.034700
     54 H29         -0.9360    -0.2410     0.5030 hc         1 3SV       0.034700
     55 H30         -2.7880     1.4680     0.3620 hc         1 3SV       0.035700
     56 H31         -3.0140     1.0530    -1.3250 hc         1 3SV       0.035700
     57 H32         -3.3610    -1.3600    -0.6330 hc         1 3SV       0.025200
     58 H33         -3.3260    -0.8500     1.0400 hc         1 3SV       0.025200
     59 H34         -5.3280     0.0650    -1.0650 hc         1 3SV       0.059700
     60 H35         -6.5620     1.0820     0.8650 hc         1 3SV       0.020700
     61 H36         -5.2030     0.6940     1.9240 hc         1 3SV       0.020700
     62 H37         -5.0040     1.8530     0.6120 hc         1 3SV       0.020700
     63 H38         -5.4910    -2.3190    -0.3330 hc         1 3SV       0.015700
     64 H39         -5.6810    -1.7960     1.3200 hc         1 3SV       0.015700
@<TRIPOS>BOND
     1     1     2 1   
     2     1    26 1   
     3     1    27 1   
     4     1    28 1   
     5     2     3 1   
     6     2     4 1   
     7     2    29 1   
     8     3    30 1   
     9     3    31 1   
    10     3    32 1   
    11     4     5 1   
    12     4    33 1   
    13     4    34 1   
    14     5     6 1   
    15     5    35 1   
    16     5    36 1   
    17     6     7 2   
    18     6    13 1   
    19     7     8 1   
    20     7    10 1   
    21     8     9 1   
    22     8    37 1   
    23     8    38 1   
    24     9    39 1   
    25     9    40 1   
    26     9    41 1   
    27    10    11 1   
    28    10    42 1   
    29    10    43 1   
    30    11    12 1   
    31    11    44 1   
    32    11    45 1   
    33    12    13 1   
    34    12    46 1   
    35    12    47 1   
    36    13    14 2   
    37    14    15 1   
    38    14    48 1   
    39    15    16 1   
    40    15    17 1   
    41    15    49 1   
    42    16    50 1   
    43    16    51 1   
    44    16    52 1   
    45    17    18 1   
    46    17    53 1   
    47    17    54 1   
    48    18    19 1   
    49    18    55 1   
    50    18    56 1   
    51    19    20 1   
    52    19    57 1   
    53    19    58 1   
    54    20    21 1   
    55    20    22 1   
    56    20    59 1   
    57    21    60 1   
    58    21    61 1   
    59    21    62 1   
    60    22    23 1   
    61    22    63 1   
    62    22    64 1   
    63    23    24 1   
    64    23    25 1   
@<TRIPOS>SUBSTRUCTURE
     1 3SV         1 TEMP              0 ****  ****    0 ROOT
