@<TRIPOS>MOLECULE
3SV
   64    64     1     0     0
SMALL
No Charge or Current Charge


@<TRIPOS>ATOM
      1 C5           4.7750    -3.7530    -0.9570 c3         1 3SV      -0.086600
      2 C3           3.3720    -3.3520    -0.4420 c3         1 3SV      -0.061700
      3 C4           2.7990    -4.4430     0.4910 c3         1 3SV      -0.086600
      4 C2           3.3570    -1.9640     0.2560 c3         1 3SV      -0.072400
      5 C1           3.7500    -0.7740    -0.6540 c3         1 3SV      -0.039200
      6 C21          3.5620     0.5860     0.0300 ce         1 3SV      -0.058200
      7 C18          4.5900     1.1750     0.7110 c2         1 3SV      -0.120400
      8 C6           5.9830     0.5830     0.9200 c3         1 3SV      -0.038200
      9 C7           6.9800     1.0140    -0.1730 c3         1 3SV      -0.085100
     10 C16          4.4220     2.5480     1.3500 c6         1 3SV      -0.035200
     11 C17          3.4680     3.4110     0.5160 c6         1 3SV      -0.071400
     12 C15          2.1110     2.7020     0.3780 c6         1 3SV      -0.037200
     13 C22          2.2170     1.2380    -0.0990 ce         1 3SV      -0.088200
     14 C23          1.1090     0.6060    -0.5780 c2         1 3SV      -0.194200
     15 C8          -0.3000     1.1680    -0.7240 c3         1 3SV      -0.030500
     16 C19         -0.4870     1.7680    -2.1360 c3         1 3SV      -0.081100
     17 C9          -1.3550     0.0800    -0.3860 c3         1 3SV      -0.072400
     18 C10         -2.8140     0.5920    -0.3100 c3         1 3SV      -0.073400
     19 C11         -3.8120    -0.5060     0.1310 c3         1 3SV      -0.075400
     20 C12         -5.3120    -0.0900     0.0990 c3         1 3SV      -0.041700
     21 C20         -5.6160     1.0900     1.0590 c3         1 3SV      -0.073100
     22 C13         -6.2270    -1.3240     0.3700 c3         1 3SV      -0.201400
     23 C14         -7.7140    -1.0200     0.0920 c          1 3SV       0.715000
     24 O1          -8.4250    -0.6780     1.0260 o          1 3SV      -0.743000
     25 O2          -8.1180    -1.1260    -1.0570 o          1 3SV      -0.743000
     26 H1           4.7530    -4.7570    -1.3970 hc         1 3SV       0.030367
     27 H2           5.1260    -3.0630    -1.7320 hc         1 3SV       0.030367
     28 H3           5.5060    -3.7550    -0.1380 hc         1 3SV       0.030367
     29 H4           2.7060    -3.2930    -1.3130 hc         1 3SV       0.047700
     30 H5           3.4200    -4.5560     1.3880 hc         1 3SV       0.030367
     31 H6           1.7810    -4.1880     0.8080 hc         1 3SV       0.030367
     32 H7           2.7580    -5.4110    -0.0230 hc         1 3SV       0.030367
     33 H8           2.3520    -1.7830     0.6530 hc         1 3SV       0.044200
     34 H9           4.0270    -1.9880     1.1250 hc         1 3SV       0.044200
     35 H10          4.7870    -0.8980    -0.9800 hc         1 3SV       0.043200
     36 H11          3.1810    -0.8210    -1.5900 hc         1 3SV       0.043200
     37 H12          6.3800     0.8860     1.8970 hc         1 3SV       0.041200
     38 H13          5.9490    -0.5110     0.9560 hc         1 3SV       0.041200
     39 H14          7.0990     2.1040    -0.1830 hc         1 3SV       0.030033
     40 H15          7.9630     0.5630     0.0070 hc         1 3SV       0.030033
     41 H16          6.6330     0.6970    -1.1640 hc         1 3SV       0.030033
     42 H17          4.0420     2.4360     2.3740 hc         1 3SV       0.040200
     43 H18          5.3890     3.0640     1.4290 hc         1 3SV       0.040200
     44 H19          3.3360     4.3960     0.9840 hc         1 3SV       0.039200
     45 H20          3.9000     3.5850    -0.4790 hc         1 3SV       0.039200
     46 H21          1.5900     2.7240     1.3450 hc         1 3SV       0.048200
     47 H22          1.4920     3.2860    -0.3170 hc         1 3SV       0.048200
     48 H23          1.1590    -0.4310    -0.9020 ha         1 3SV       0.169000
     49 H24         -0.4470     1.9780     0.0010 hc         1 3SV       0.048700
     50 H25         -0.4500     0.9830    -2.9010 hc         1 3SV       0.032367
     51 H26         -1.4460     2.2920    -2.2220 hc         1 3SV       0.032367
     52 H27          0.3060     2.4930    -2.3550 hc         1 3SV       0.032367
     53 H28         -1.2950    -0.7280    -1.1260 hc         1 3SV       0.034700
     54 H29         -1.0950    -0.3630     0.5840 hc         1 3SV       0.034700
     55 H30         -2.8520     1.4310     0.3950 hc         1 3SV       0.035700
     56 H31         -3.1220     0.9750    -1.2900 hc         1 3SV       0.035700
     57 H32         -3.6730    -1.3720    -0.5280 hc         1 3SV       0.025200
     58 H33         -3.5520    -0.8410     1.1430 hc         1 3SV       0.025200
     59 H34         -5.5290     0.2560    -0.9200 hc         1 3SV       0.059700
     60 H35         -6.6700     1.3860     1.0020 hc         1 3SV       0.020700
     61 H36         -5.3910     0.8170     2.0970 hc         1 3SV       0.020700
     62 H37         -5.0260     1.9760     0.8000 hc         1 3SV       0.020700
     63 H38         -5.8870    -2.0940    -0.3340 hc         1 3SV       0.015700
     64 H39         -6.0790    -1.6010     1.4210 hc         1 3SV       0.015700
@<TRIPOS>BOND
     1     1     2 1   
     2     1    26 1   
     3     1    27 1   
     4     1    28 1   
     5     2     3 1   
     6     2     4 1   
     7     2    29 1   
     8     3    30 1   
     9     3    31 1   
    10     3    32 1   
    11     4     5 1   
    12     4    33 1   
    13     4    34 1   
    14     5     6 1   
    15     5    35 1   
    16     5    36 1   
    17     6     7 2   
    18     6    13 1   
    19     7     8 1   
    20     7    10 1   
    21     8     9 1   
    22     8    37 1   
    23     8    38 1   
    24     9    39 1   
    25     9    40 1   
    26     9    41 1   
    27    10    11 1   
    28    10    42 1   
    29    10    43 1   
    30    11    12 1   
    31    11    44 1   
    32    11    45 1   
    33    12    13 1   
    34    12    46 1   
    35    12    47 1   
    36    13    14 2   
    37    14    15 1   
    38    14    48 1   
    39    15    16 1   
    40    15    17 1   
    41    15    49 1   
    42    16    50 1   
    43    16    51 1   
    44    16    52 1   
    45    17    18 1   
    46    17    53 1   
    47    17    54 1   
    48    18    19 1   
    49    18    55 1   
    50    18    56 1   
    51    19    20 1   
    52    19    57 1   
    53    19    58 1   
    54    20    21 1   
    55    20    22 1   
    56    20    59 1   
    57    21    60 1   
    58    21    61 1   
    59    21    62 1   
    60    22    23 1   
    61    22    63 1   
    62    22    64 1   
    63    23    24 1   
    64    23    25 1   
@<TRIPOS>SUBSTRUCTURE
     1 3SV         1 TEMP              0 ****  ****    0 ROOT
