@<TRIPOS>MOLECULE
3SW
   59    60     1     0     0
SMALL
abcg2


@<TRIPOS>ATOM
      1 C1          -2.4420    -2.4980    -0.7870 c6         1 3SW      -0.032200
      2 C10          1.9240    -1.4680     0.5490 ce         1 3SW      -0.277000
      3 C11          3.2620    -1.4090     0.4210 cf         1 3SW      -0.095000
      4 C9           1.2080    -2.6470     0.9790 ce         1 3SW      -0.122000
      5 O2           7.5720     0.1480    -0.5920 o          1 3SW      -0.721000
      6 C14          6.4140     0.6180    -0.5450 c          1 3SW       0.695200
      7 C20          3.2540     1.0240    -0.2590 c3         1 3SW      -0.041900
      8 C19         -0.7780    -3.9730     1.6380 c3         1 3SW      -0.035900
      9 C12          4.0220    -0.2380    -0.0030 cf         1 3SW      -0.153200
     10 C13          5.3590    -0.3760    -0.1250 ce         1 3SW      -0.194200
     11 C2          -2.9360    -1.9800    -2.1260 c6         1 3SW      -0.072400
     12 C4          -3.7430     0.0500    -0.8910 c2         1 3SW      -0.104400
     13 C5          -2.7580    -0.1080     0.0190 ce         1 3SW      -0.047200
     14 C6          -2.0040    -1.3720     0.1130 ce         1 3SW      -0.092200
     15 C7          -0.9640    -1.5120     0.9550 cf         1 3SW      -0.139000
     16 C8          -0.1280    -2.7150     1.1410 cf         1 3SW      -0.145200
     17 C3          -4.0730    -0.9980    -1.9180 c6         1 3SW      -0.028200
     18 O1           6.0930     1.7960    -0.8130 o          1 3SW      -0.721000
     19 C17         -0.1500     2.4810     2.5960 c3         1 3SW      -0.090600
     20 C24         -0.7180     2.9770     1.2690 c3         1 3SW      -0.056700
     21 C18          0.3110     3.8310     0.5340 c3         1 3SW      -0.090600
     22 C16         -1.1800     1.8250     0.3780 c3         1 3SW      -0.074400
     23 C15         -2.3660     1.0260     0.9310 c3         1 3SW      -0.041200
     24 C21         -4.5270     1.3190    -0.9750 cx         1 3SW      -0.073500
     25 C22         -5.5880     1.6490     0.0360 cx         1 3SW      -0.133900
     26 C23         -5.9720     1.3110    -1.3710 cx         1 3SW      -0.133900
     27 H1          -3.2510    -3.0570    -0.3010 hc         1 3SW       0.045200
     28 H2          -1.6230    -3.2030    -0.9390 hc         1 3SW       0.045200
     29 H3           1.3300    -0.5910     0.3140 ha         1 3SW       0.175000
     30 H4           3.8420    -2.3020     0.6450 ha         1 3SW       0.152000
     31 H5           1.8040    -3.5330     1.1820 ha         1 3SW       0.159000
     32 H7           2.7530     1.3550     0.6550 hc         1 3SW       0.036367
     33 H8           3.9060     1.8180    -0.6030 hc         1 3SW       0.036367
     34 H9           2.4700     0.8620    -1.0020 hc         1 3SW       0.036367
     35 H10         -1.1920    -3.8160     2.6380 hc         1 3SW       0.029033
     36 H11         -1.6100    -4.2900     1.0090 hc         1 3SW       0.029033
     37 H12         -0.0650    -4.7950     1.6950 hc         1 3SW       0.029033
     38 H13          5.7590    -1.3600     0.1060 ha         1 3SW       0.143000
     39 H14         -2.1150    -1.4820    -2.6510 hc         1 3SW       0.042200
     40 H15         -3.2580    -2.8110    -2.7560 hc         1 3SW       0.042200
     41 H16         -0.6610    -0.6630     1.5580 ha         1 3SW       0.180000
     42 H17         -4.3260    -0.5030    -2.8590 hc         1 3SW       0.038200
     43 H18         -4.9820    -1.5350    -1.6210 hc         1 3SW       0.038200
     44 H19          0.6680     1.7750     2.4290 hc         1 3SW       0.034533
     45 H20          0.2460     3.3080     3.1890 hc         1 3SW       0.034533
     46 H21         -0.8990     1.9770     3.2060 hc         1 3SW       0.034533
     47 H22         -1.5880     3.6100     1.4840 hc         1 3SW       0.029700
     48 H23          1.2130     3.2560     0.3090 hc         1 3SW       0.034533
     49 H24         -0.0850     4.2050    -0.4120 hc         1 3SW       0.034533
     50 H25          0.6140     4.6930     1.1310 hc         1 3SW       0.034533
     51 H26         -1.4610     2.2190    -0.6040 hc         1 3SW       0.047200
     52 H27         -0.3310     1.1550     0.1990 hc         1 3SW       0.047200
     53 H28         -3.2060     1.7090     1.0670 hc         1 3SW       0.042700
     54 H29         -2.1360     0.6430     1.9270 hc         1 3SW       0.042700
     55 H30         -3.9610     2.1750    -1.3350 hc         1 3SW       0.081700
     56 H31         -5.7870     0.9120     0.8040 hc         1 3SW       0.066700
     57 H32         -5.6790     2.6760     0.3690 hc         1 3SW       0.066700
     58 H33         -6.3270     2.1080    -2.0120 hc         1 3SW       0.066700
     59 H34         -6.4530     0.3570    -1.5470 hc         1 3SW       0.066700
@<TRIPOS>BOND
     1     1    11 1   
     2     1    14 1   
     3     1    27 1   
     4     1    28 1   
     5     2     3 2   
     6     2     4 1   
     7     2    29 1   
     8     3     9 1   
     9     3    30 1   
    10     4    16 2   
    11     4    31 1   
    12     5     6 1   
    13     6    10 1   
    14     6    18 1   
    15     7     9 1   
    16     7    32 1   
    17     7    33 1   
    18     7    34 1   
    19     8    16 1   
    20     8    35 1   
    21     8    36 1   
    22     8    37 1   
    23     9    10 2   
    24    10    38 1   
    25    11    17 1   
    26    11    39 1   
    27    11    40 1   
    28    12    13 2   
    29    12    17 1   
    30    12    24 1   
    31    13    14 1   
    32    13    23 1   
    33    14    15 2   
    34    15    16 1   
    35    15    41 1   
    36    17    42 1   
    37    17    43 1   
    38    19    20 1   
    39    19    44 1   
    40    19    45 1   
    41    19    46 1   
    42    20    21 1   
    43    20    22 1   
    44    20    47 1   
    45    21    48 1   
    46    21    49 1   
    47    21    50 1   
    48    22    23 1   
    49    22    51 1   
    50    22    52 1   
    51    23    53 1   
    52    23    54 1   
    53    24    25 1   
    54    24    26 1   
    55    24    55 1   
    56    25    26 1   
    57    25    56 1   
    58    25    57 1   
    59    26    58 1   
    60    26    59 1   
@<TRIPOS>SUBSTRUCTURE
     1 3SW         1 TEMP              0 ****  ****    0 ROOT
