@<TRIPOS>MOLECULE
3SW
   59    60     1     0     0
SMALL
No Charge or Current Charge


@<TRIPOS>ATOM
      1 C1          -2.5510    -2.5240    -0.8430 c6         1 3SW      -0.032200
      2 C10          2.0730    -1.4670     0.5560 ce         1 3SW      -0.277000
      3 C11          3.4350    -1.4180     0.5570 cf         1 3SW      -0.095000
      4 C9           1.2840    -2.6690     0.8640 ce         1 3SW      -0.122000
      5 O2           7.8080     0.0620    -0.5970 o          1 3SW      -0.721000
      6 C14          6.6910     0.5190    -0.4110 c          1 3SW       0.695200
      7 C20          3.6390     1.1240     0.3310 c3         1 3SW      -0.041900
      8 C19         -0.7640    -4.0380     1.3130 c3         1 3SW      -0.035900
      9 C12          4.2820    -0.2600     0.2430 cf         1 3SW      -0.153200
     10 C13          5.6100    -0.4630    -0.0500 ce         1 3SW      -0.194200
     11 C2          -3.2560    -2.0240    -2.1110 c6         1 3SW      -0.072400
     12 C4          -3.9620     0.0260    -0.8160 c2         1 3SW      -0.104400
     13 C5          -2.8640    -0.1040    -0.0070 ce         1 3SW      -0.047200
     14 C6          -2.0570    -1.3720     0.0550 ce         1 3SW      -0.092200
     15 C7          -0.9160    -1.5390     0.8060 cf         1 3SW      -0.139000
     16 C8          -0.0770    -2.7340     0.9350 cf         1 3SW      -0.145200
     17 C3          -4.4210    -1.1100    -1.7230 c6         1 3SW      -0.028200
     18 O1           6.4370     1.7060    -0.5380 o          1 3SW      -0.721000
     19 C17         -0.0750     2.6190     2.3950 c3         1 3SW      -0.090600
     20 C24         -0.6910     3.0560     1.0430 c3         1 3SW      -0.056700
     21 C18          0.3270     3.8810     0.2230 c3         1 3SW      -0.090600
     22 C16         -1.2310     1.8620     0.2090 c3         1 3SW      -0.074400
     23 C15         -2.3820     1.0620     0.8710 c3         1 3SW      -0.041200
     24 C21         -4.7550     1.2990    -0.8970 cx         1 3SW      -0.073500
     25 C22         -5.7160     1.6690     0.2120 cx         1 3SW      -0.133900
     26 C23         -6.2510     1.2870    -1.1440 cx         1 3SW      -0.133900
     27 H1          -3.2290    -3.1710    -0.2700 hc         1 3SW       0.045200
     28 H2          -1.7090    -3.1530    -1.1600 hc         1 3SW       0.045200
     29 H3           1.5130    -0.5730     0.2860 ha         1 3SW       0.175000
     30 H4           3.9630    -2.3450     0.7920 ha         1 3SW       0.152000
     31 H5           1.8490    -3.5880     1.0370 ha         1 3SW       0.159000
     32 H7           2.7360     1.1300     0.9500 hc         1 3SW       0.036367
     33 H8           4.3060     1.8560     0.7980 hc         1 3SW       0.036367
     34 H9           3.3650     1.4990    -0.6630 hc         1 3SW       0.036367
     35 H10         -1.7650    -3.8660     1.7260 hc         1 3SW       0.029033
     36 H11         -0.8670    -4.7020     0.4470 hc         1 3SW       0.029033
     37 H12         -0.1930    -4.5820     2.0750 hc         1 3SW       0.029033
     38 H13          5.9680    -1.4900    -0.0430 ha         1 3SW       0.143000
     39 H14         -2.5430    -1.4750    -2.7420 hc         1 3SW       0.042200
     40 H15         -3.6200    -2.8740    -2.7040 hc         1 3SW       0.042200
     41 H16         -0.5390    -0.6970     1.3800 ha         1 3SW       0.180000
     42 H17         -4.8800    -0.7100    -2.6380 hc         1 3SW       0.038200
     43 H18         -5.1980    -1.6940    -1.2110 hc         1 3SW       0.038200
     44 H19          0.7170     1.8760     2.2430 hc         1 3SW       0.034533
     45 H20          0.3600     3.4790     2.9180 hc         1 3SW       0.034533
     46 H21         -0.8340     2.1850     3.0560 hc         1 3SW       0.034533
     47 H22         -1.5370     3.7180     1.2660 hc         1 3SW       0.029700
     48 H23          1.2050     3.2760    -0.0330 hc         1 3SW       0.034533
     49 H24         -0.1250     4.2410    -0.7090 hc         1 3SW       0.034533
     50 H25          0.6670     4.7550     0.7920 hc         1 3SW       0.034533
     51 H26         -1.5970     2.2430    -0.7530 hc         1 3SW       0.047200
     52 H27         -0.4010     1.1870    -0.0280 hc         1 3SW       0.047200
     53 H28         -3.1880     1.7640     1.1030 hc         1 3SW       0.042700
     54 H29         -2.0820     0.6950     1.8570 hc         1 3SW       0.042700
     55 H30         -4.2090     2.1150    -1.3660 hc         1 3SW       0.081700
     56 H31         -5.8480     0.9600     1.0260 hc         1 3SW       0.066700
     57 H32         -5.7710     2.7150     0.5050 hc         1 3SW       0.066700
     58 H33         -6.6660     2.0770    -1.7650 hc         1 3SW       0.066700
     59 H34         -6.7660     0.3330    -1.2230 hc         1 3SW       0.066700
@<TRIPOS>BOND
     1     1    11 1   
     2     1    14 1   
     3     1    27 1   
     4     1    28 1   
     5     2     3 2   
     6     2     4 1   
     7     2    29 1   
     8     3     9 1   
     9     3    30 1   
    10     4    16 2   
    11     4    31 1   
    12     5     6 1   
    13     6    10 1   
    14     6    18 1   
    15     7     9 1   
    16     7    32 1   
    17     7    33 1   
    18     7    34 1   
    19     8    16 1   
    20     8    35 1   
    21     8    36 1   
    22     8    37 1   
    23     9    10 2   
    24    10    38 1   
    25    11    17 1   
    26    11    39 1   
    27    11    40 1   
    28    12    13 2   
    29    12    17 1   
    30    12    24 1   
    31    13    14 1   
    32    13    23 1   
    33    14    15 2   
    34    15    16 1   
    35    15    41 1   
    36    17    42 1   
    37    17    43 1   
    38    19    20 1   
    39    19    44 1   
    40    19    45 1   
    41    19    46 1   
    42    20    21 1   
    43    20    22 1   
    44    20    47 1   
    45    21    48 1   
    46    21    49 1   
    47    21    50 1   
    48    22    23 1   
    49    22    51 1   
    50    22    52 1   
    51    23    53 1   
    52    23    54 1   
    53    24    25 1   
    54    24    26 1   
    55    24    55 1   
    56    25    26 1   
    57    25    56 1   
    58    25    57 1   
    59    26    58 1   
    60    26    59 1   
@<TRIPOS>SUBSTRUCTURE
     1 3SW         1 TEMP              0 ****  ****    0 ROOT
