@<TRIPOS>MOLECULE
3SX
   64    66     1     0     0
SMALL
abcg2


@<TRIPOS>ATOM
      1 C4           2.2370     2.2380    -0.3230 c3         1 3SX       0.230800
      2 C14         -4.5580    -0.7280    -0.8340 c6         1 3SX       0.179300
      3 C6           1.4270     0.6580     1.4360 c3         1 3SX       0.279100
      4 C11         -2.3390     1.1620     1.4850 ca         1 3SX      -0.161500
      5 C7          -0.0400     0.4840     1.1480 ca         1 3SX      -0.132300
      6 C8          -0.4910    -0.4840     0.2620 ca         1 3SX      -0.064000
      7 C9          -1.8410    -0.6340    -0.0170 ca         1 3SX      -0.161500
      8 C10         -2.7980     0.1960     0.5800 ca         1 3SX       0.299000
      9 C12         -0.9890     1.2960     1.7600 ca         1 3SX      -0.064000
     10 C3           1.2040     4.0080    -1.7170 c3         1 3SX      -0.087100
     11 C1           0.9510     1.6050    -2.4160 c3         1 3SX      -0.087100
     12 C2           1.0580     2.5650    -1.2410 c3         1 3SX      -0.068700
     13 N5           2.2150     0.8840     0.2260 n3         1 3SX      -0.777500
     14 N13         -4.1560     0.1170     0.2700 nh         1 3SX      -0.792400
     15 C15         -5.9580    -0.3560    -1.2970 c6         1 3SX       0.093500
     16 N16         -6.8970    -0.4110    -0.1970 n          1 3SX      -0.417800
     17 C17         -6.4960     0.4220     0.9190 c6         1 3SX       0.093500
     18 C18         -5.0980     0.0480     1.3780 c6         1 3SX       0.179300
     19 C19         -8.0320    -1.1440    -0.1660 c          1 3SX       0.610100
     20 O20         -8.7890    -1.1310     0.7980 o          1 3SX      -0.605100
     21 C21         -8.3380    -1.9910    -1.3790 c3         1 3SX      -0.177100
     22 S22          3.4160    -0.1660    -0.1490 s6         1 3SX       1.203100
     23 O23          2.9620    -1.5100     0.1870 o          1 3SX      -0.528500
     24 O24          3.8480     0.1070    -1.5120 o          1 3SX      -0.528500
     25 C25          4.7920     0.2310     0.9470 c3         1 3SX      -0.271100
     26 C26          5.9530    -0.6660     0.6590 ca         1 3SX      -0.078300
     27 C27          6.0680    -1.8980     1.2990 ca         1 3SX      -0.086000
     28 C28          7.1350    -2.7380     1.0160 ca         1 3SX      -0.109000
     29 C29          8.0920    -2.3580     0.0840 ca         1 3SX      -0.100000
     30 C30          7.9810    -1.1330    -0.5600 ca         1 3SX      -0.109000
     31 C31          6.9130    -0.2930    -0.2770 ca         1 3SX      -0.086000
     32 H1           3.1670     2.3960    -0.8720 h1         1 3SX       0.045200
     33 H2           2.2510     2.9410     0.5170 h1         1 3SX       0.045200
     34 H4          -4.5300    -1.7970    -0.5720 h1         1 3SX       0.047450
     35 H5           1.5730     1.5070     2.1110 h1         1 3SX       0.052200
     36 H6           1.8080    -0.2190     1.9590 h1         1 3SX       0.052200
     37 H7          -3.0360     1.8420     1.9580 ha         1 3SX       0.115500
     38 H8           0.2190    -1.1400    -0.2270 ha         1 3SX       0.117500
     39 H9          -2.1380    -1.4170    -0.7030 ha         1 3SX       0.115500
     40 H10         -0.6700     2.0710     2.4470 ha         1 3SX       0.117500
     41 H11          0.3520     4.3050    -2.3290 hc         1 3SX       0.036867
     42 H12          1.2670     4.7040    -0.8780 hc         1 3SX       0.036867
     43 H13          2.1060     4.1310    -2.3220 hc         1 3SX       0.036867
     44 H14          0.8210     0.5760    -2.0830 hc         1 3SX       0.036867
     45 H15          0.0920     1.8580    -3.0390 hc         1 3SX       0.036867
     46 H16          1.8430     1.6470    -3.0440 hc         1 3SX       0.036867
     47 H17          0.1380     2.4940    -0.6540 hc         1 3SX       0.059700
     48 H18         -5.9420     0.6600    -1.7040 h1         1 3SX       0.061450
     49 H19         -6.2540    -1.0240    -2.1010 h1         1 3SX       0.061450
     50 H20         -6.5110     1.4720     0.6090 h1         1 3SX       0.061450
     51 H21         -7.1980     0.3040     1.7390 h1         1 3SX       0.061450
     52 H22         -5.1170    -0.9630     1.8110 h1         1 3SX       0.047450
     53 H23         -4.8030     0.7340     2.1700 h1         1 3SX       0.047450
     54 H24         -7.5630    -2.7380    -1.5530 hc         1 3SX       0.060700
     55 H25         -9.2820    -2.5070    -1.2220 hc         1 3SX       0.060700
     56 H26         -8.4210    -1.3900    -2.2840 hc         1 3SX       0.060700
     57 H27          5.0310     1.2820     0.7760 h1         1 3SX       0.091700
     58 H28          4.4250     0.1220     1.9690 h1         1 3SX       0.091700
     59 H29          5.3240    -2.1960     2.0280 ha         1 3SX       0.118500
     60 H30          7.2180    -3.6910     1.5220 ha         1 3SX       0.115500
     61 H31          8.9240    -3.0150    -0.1370 ha         1 3SX       0.113000
     62 H32          8.7260    -0.8310    -1.2840 ha         1 3SX       0.115500
     63 H33          6.8320     0.6630    -0.7780 ha         1 3SX       0.118500
     64 H3          -3.8790    -0.5780    -1.6740 h1         1 3SX       0.047450
@<TRIPOS>BOND
     1     1    12 1   
     2     1    13 1   
     3     1    32 1   
     4     1    33 1   
     5     2    14 1   
     6     2    15 1   
     7     2    34 1   
     8     2    64 1   
     9     3     5 1   
    10     3    13 1   
    11     3    35 1   
    12     3    36 1   
    13     4     8 ar  
    14     4     9 ar  
    15     4    37 1   
    16     5     6 ar  
    17     5     9 ar  
    18     6     7 ar  
    19     6    38 1   
    20     7     8 ar  
    21     7    39 1   
    22     8    14 1   
    23     9    40 1   
    24    10    12 1   
    25    10    41 1   
    26    10    42 1   
    27    10    43 1   
    28    11    12 1   
    29    11    44 1   
    30    11    45 1   
    31    11    46 1   
    32    12    47 1   
    33    13    22 1   
    34    14    18 1   
    35    15    16 1   
    36    15    48 1   
    37    15    49 1   
    38    16    17 1   
    39    16    19 1   
    40    17    18 1   
    41    17    50 1   
    42    17    51 1   
    43    18    52 1   
    44    18    53 1   
    45    19    20 2   
    46    19    21 1   
    47    21    54 1   
    48    21    55 1   
    49    21    56 1   
    50    22    23 2   
    51    22    24 2   
    52    22    25 1   
    53    25    26 1   
    54    25    57 1   
    55    25    58 1   
    56    26    27 ar  
    57    26    31 ar  
    58    27    28 ar  
    59    27    59 1   
    60    28    29 ar  
    61    28    60 1   
    62    29    30 ar  
    63    29    61 1   
    64    30    31 ar  
    65    30    62 1   
    66    31    63 1   
@<TRIPOS>SUBSTRUCTURE
     1 3SX         1 TEMP              0 ****  ****    0 ROOT
