@<TRIPOS>MOLECULE
3SX
   64    66     1     0     0
SMALL
No Charge or Current Charge


@<TRIPOS>ATOM
      1 C4           2.1070     1.3230    -0.6880 c3         1 3SX       0.230800
      2 C14         -4.9370    -0.1780    -0.9940 c6         1 3SX       0.179300
      3 C6           1.5000    -0.6670     0.7000 c3         1 3SX       0.279100
      4 C11         -2.0880     0.5130     1.3820 ca         1 3SX      -0.161500
      5 C7          -0.0110    -0.5010     0.6060 ca         1 3SX      -0.132300
      6 C8          -0.7370    -1.2070    -0.3710 ca         1 3SX      -0.064000
      7 C9          -2.1290    -1.0460    -0.4740 ca         1 3SX      -0.161500
      8 C10         -2.8180    -0.1840     0.4020 ca         1 3SX       0.299000
      9 C12         -0.6950     0.3570     1.4880 ca         1 3SX      -0.064000
     10 C3           0.8420     3.3020    -1.6910 c3         1 3SX      -0.087100
     11 C1           0.8010     1.0560    -2.8940 c3         1 3SX      -0.087100
     12 C2           0.8700     1.7660    -1.5210 c3         1 3SX      -0.068700
     13 N5           2.2550    -0.1420    -0.4650 n3         1 3SX      -0.777500
     14 N13         -4.2200    -0.0060     0.3090 nh         1 3SX      -0.792400
     15 C15         -6.2770     0.6120    -1.0310 c6         1 3SX       0.093500
     16 N16         -7.1320     0.2950     0.1490 n          1 3SX      -0.417800
     17 C17         -6.4190     0.5490     1.4310 c6         1 3SX       0.093500
     18 C18         -5.0840    -0.2440     1.5090 c6         1 3SX       0.179300
     19 C19         -8.3280    -0.4560     0.0870 c          1 3SX       0.610100
     20 O20         -8.8510    -0.8920     1.1040 o          1 3SX      -0.605100
     21 C21         -9.0000    -0.6770    -1.2700 c3         1 3SX      -0.177100
     22 S22          3.8860    -0.7000    -0.5390 s6         1 3SX       1.203100
     23 O23          3.8520    -2.1380    -0.2520 o          1 3SX      -0.528500
     24 O24          4.4190    -0.2510    -1.8310 o          1 3SX      -0.528500
     25 C25          4.7360     0.1580     0.8060 c3         1 3SX      -0.271100
     26 C26          6.2150    -0.1880     0.9280 ca         1 3SX      -0.078300
     27 C27          6.6280    -1.2590     1.7430 ca         1 3SX      -0.086000
     28 C28          7.9930    -1.5780     1.8550 ca         1 3SX      -0.109000
     29 C29          8.9510    -0.8250     1.1550 ca         1 3SX      -0.100000
     30 C30          8.5430     0.2460     0.3420 ca         1 3SX      -0.109000
     31 C31          7.1780     0.5640     0.2290 ca         1 3SX      -0.086000
     32 H1           2.9810     1.7140    -1.2250 h1         1 3SX       0.045200
     33 H2           2.0920     1.8460     0.2790 h1         1 3SX       0.045200
     34 H4          -5.1490    -1.2440    -1.1650 h1         1 3SX       0.047450
     35 H5           1.8560    -0.1910     1.6250 h1         1 3SX       0.052200
     36 H6           1.6790    -1.7440     0.8200 h1         1 3SX       0.052200
     37 H7          -2.6000     1.1920     2.0570 ha         1 3SX       0.115500
     38 H8          -0.2180    -1.8730    -1.0580 ha         1 3SX       0.117500
     39 H9          -2.6680    -1.6040    -1.2330 ha         1 3SX       0.115500
     40 H10         -0.1490     0.9130     2.2470 ha         1 3SX       0.117500
     41 H11         -0.0590     3.6160    -2.2320 hc         1 3SX       0.036867
     42 H12          0.8390     3.8000    -0.7130 hc         1 3SX       0.036867
     43 H13          1.7180     3.6510    -2.2520 hc         1 3SX       0.036867
     44 H14          0.7360    -0.0310    -2.7710 hc         1 3SX       0.036867
     45 H15         -0.0820     1.3830    -3.4550 hc         1 3SX       0.036867
     46 H16          1.6920     1.2790    -3.4940 hc         1 3SX       0.036867
     47 H17         -0.0390     1.5070    -0.9730 hc         1 3SX       0.059700
     48 H18         -6.0510     1.6870    -1.0200 h1         1 3SX       0.061450
     49 H19         -6.7870     0.4070    -1.9800 h1         1 3SX       0.061450
     50 H20         -6.2000     1.6230     1.5070 h1         1 3SX       0.061450
     51 H21         -7.0470     0.2880     2.2940 h1         1 3SX       0.061450
     52 H22         -5.3140    -1.3170     1.5890 h1         1 3SX       0.047450
     53 H23         -4.5630     0.0430     2.4330 h1         1 3SX       0.047450
     54 H24         -8.3270    -1.2580    -1.9100 hc         1 3SX       0.060700
     55 H25         -9.9740    -1.1710    -1.1790 hc         1 3SX       0.060700
     56 H26         -9.0790     0.2790    -1.7980 hc         1 3SX       0.060700
     57 H27          4.6090     1.2290     0.6200 h1         1 3SX       0.091700
     58 H28          4.2050    -0.1090     1.7250 h1         1 3SX       0.091700
     59 H29          5.8920    -1.8470     2.2880 ha         1 3SX       0.118500
     60 H30          8.3070    -2.4070     2.4850 ha         1 3SX       0.115500
     61 H31         10.0070    -1.0720     1.2420 ha         1 3SX       0.113000
     62 H32          9.2840     0.8290    -0.2010 ha         1 3SX       0.115500
     63 H33          6.8710     1.3940    -0.4040 ha         1 3SX       0.118500
     64 H3          -4.3070     0.1720    -1.8250 h1         1 3SX       0.047450
@<TRIPOS>BOND
     1     1    12 1   
     2     1    13 1   
     3     1    32 1   
     4     1    33 1   
     5     2    14 1   
     6     2    15 1   
     7     2    34 1   
     8     2    64 1   
     9     3     5 1   
    10     3    13 1   
    11     3    35 1   
    12     3    36 1   
    13     4     8 ar  
    14     4     9 ar  
    15     4    37 1   
    16     5     6 ar  
    17     5     9 ar  
    18     6     7 ar  
    19     6    38 1   
    20     7     8 ar  
    21     7    39 1   
    22     8    14 1   
    23     9    40 1   
    24    10    12 1   
    25    10    41 1   
    26    10    42 1   
    27    10    43 1   
    28    11    12 1   
    29    11    44 1   
    30    11    45 1   
    31    11    46 1   
    32    12    47 1   
    33    13    22 1   
    34    14    18 1   
    35    15    16 1   
    36    15    48 1   
    37    15    49 1   
    38    16    17 1   
    39    16    19 1   
    40    17    18 1   
    41    17    50 1   
    42    17    51 1   
    43    18    52 1   
    44    18    53 1   
    45    19    20 2   
    46    19    21 1   
    47    21    54 1   
    48    21    55 1   
    49    21    56 1   
    50    22    23 2   
    51    22    24 2   
    52    22    25 1   
    53    25    26 1   
    54    25    57 1   
    55    25    58 1   
    56    26    27 ar  
    57    26    31 ar  
    58    27    28 ar  
    59    27    59 1   
    60    28    29 ar  
    61    28    60 1   
    62    29    30 ar  
    63    29    61 1   
    64    30    31 ar  
    65    30    62 1   
    66    31    63 1   
@<TRIPOS>SUBSTRUCTURE
     1 3SX         1 TEMP              0 ****  ****    0 ROOT
