@<TRIPOS>MOLECULE
3SY
   21    20     1     0     0
SMALL
No Charge or Current Charge


@<TRIPOS>ATOM
      1 O7          -2.4660     0.0140     0.1730 oh         1 3SY      -0.666000
      2 C3          -1.2460     0.0110     0.9360 c3         1 3SY       0.170600
      3 C1           0.0210     0.0130     0.0210 c3         1 3SY      -0.042000
      4 C2           1.2850     0.0090     0.9410 c3         1 3SY       0.170600
      5 O6           2.5080     0.0100     0.1830 oh         1 3SY      -0.666000
      6 C4           0.0220    -1.2490    -0.9010 c3         1 3SY       0.170600
      7 O8           0.0200    -2.4740    -0.1440 oh         1 3SY      -0.666000
      8 C5           0.0240     1.2810    -0.8920 c3         1 3SY       0.170600
      9 O9           0.0240     2.5010    -0.1270 oh         1 3SY      -0.666000
     10 H1          -3.2070     0.0130     0.8190 ho         1 3SY       0.444000
     11 H2          -1.2170     0.8890     1.5950 h1         1 3SY       0.030700
     12 H3          -1.2190    -0.8720     1.5890 h1         1 3SY       0.030700
     13 H4           1.2550     0.8870     1.6000 h1         1 3SY       0.030700
     14 H5           1.2530    -0.8740     1.5940 h1         1 3SY       0.030700
     15 H6           3.2460     0.0080     0.8320 ho         1 3SY       0.444000
     16 H7          -0.8570    -1.2170    -1.5580 h1         1 3SY       0.030700
     17 H8           0.9040    -1.2180    -1.5550 h1         1 3SY       0.030700
     18 H9           0.0200    -3.2110    -0.7940 ho         1 3SY       0.444000
     19 H10          0.9060     1.2540    -1.5460 h1         1 3SY       0.030700
     20 H11         -0.8550     1.2550    -1.5500 h1         1 3SY       0.030700
     21 H12          0.0250     3.2420    -0.7720 ho         1 3SY       0.444000
@<TRIPOS>BOND
     1     1     2 1   
     2     1    10 1   
     3     2     3 1   
     4     2    11 1   
     5     2    12 1   
     6     3     4 1   
     7     3     6 1   
     8     3     8 1   
     9     4     5 1   
    10     4    13 1   
    11     4    14 1   
    12     5    15 1   
    13     6     7 1   
    14     6    16 1   
    15     6    17 1   
    16     7    18 1   
    17     8     9 1   
    18     8    19 1   
    19     8    20 1   
    20     9    21 1   
@<TRIPOS>SUBSTRUCTURE
     1 3SY         1 TEMP              0 ****  ****    0 ROOT
