@<TRIPOS>MOLECULE
3SY
   21    20     1     0     0
SMALL
bcc


@<TRIPOS>ATOM
      1 O7          -2.3840     0.0060     0.1590 oh         1 3SY      -0.603800
      2 C3          -1.2070     0.0110     0.9350 c3         1 3SY       0.147400
      3 C1           0.0220     0.0130     0.0210 c3         1 3SY      -0.042000
      4 C2           1.2470     0.0100     0.9410 c3         1 3SY       0.147400
      5 O6           2.4270     0.0180     0.1710 oh         1 3SY      -0.603800
      6 C4           0.0240    -1.2110    -0.9000 c3         1 3SY       0.147400
      7 O8           0.0200    -2.3910    -0.1300 oh         1 3SY      -0.603800
      8 C5           0.0240     1.2440    -0.8920 c3         1 3SY       0.147400
      9 O9           0.0290     2.4190    -0.1140 oh         1 3SY      -0.603800
     10 H1          -3.1350     0.0040     0.7590 ho         1 3SY       0.405000
     11 H2          -1.1670     0.8920     1.5870 h1         1 3SY       0.030700
     12 H3          -1.1610    -0.8680     1.5890 h1         1 3SY       0.030700
     13 H4           1.1990     0.8840     1.6010 h1         1 3SY       0.030700
     14 H5           1.2030    -0.8750     1.5870 h1         1 3SY       0.030700
     15 H6           3.1750     0.0100     0.7740 ho         1 3SY       0.405000
     16 H7          -0.8540    -1.1640    -1.5560 h1         1 3SY       0.030700
     17 H8           0.9050    -1.1660    -1.5510 h1         1 3SY       0.030700
     18 H9           0.0030    -3.1390    -0.7330 ho         1 3SY       0.405000
     19 H10          0.9030     1.2000    -1.5470 h1         1 3SY       0.030700
     20 H11         -0.8570     1.2050    -1.5440 h1         1 3SY       0.030700
     21 H12          0.0300     3.1710    -0.7120 ho         1 3SY       0.405000
@<TRIPOS>BOND
     1     1     2 1   
     2     1    10 1   
     3     2     3 1   
     4     2    11 1   
     5     2    12 1   
     6     3     4 1   
     7     3     6 1   
     8     3     8 1   
     9     4     5 1   
    10     4    13 1   
    11     4    14 1   
    12     5    15 1   
    13     6     7 1   
    14     6    16 1   
    15     6    17 1   
    16     7    18 1   
    17     8     9 1   
    18     8    19 1   
    19     8    20 1   
    20     9    21 1   
@<TRIPOS>SUBSTRUCTURE
     1 3SY         1 TEMP              0 ****  ****    0 ROOT
