@<TRIPOS>MOLECULE
3SZ
   53    56     1     0     0
SMALL
bcc


@<TRIPOS>ATOM
      1 NAA          5.6130    -1.6100    -1.9280 nv         1 3SZ      -0.831200
      2 OAB          0.8060    -1.3740    -0.0950 o          1 3SZ      -0.609300
      3 OAC          1.0390     0.1210     1.9230 o          1 3SZ      -0.609300
      4 OAD         -3.7440     2.0980    -1.2330 o          1 3SZ      -0.614800
      5 OAE         -3.3560     2.7370     1.1680 o          1 3SZ      -0.614800
      6 CAF          5.2620     0.5200     1.0500 ca         1 3SZ      -0.105000
      7 CAG          5.8380    -0.1890     0.0110 ca         1 3SZ      -0.149000
      8 CAH          3.8870     0.5180     1.2480 ca         1 3SZ      -0.086000
      9 CAI         -2.2880     0.0380     1.6890 ca         1 3SZ      -0.026000
     10 CAJ         -2.0340    -1.2840     2.0010 ca         1 3SZ      -0.149000
     11 CAK          3.6620    -0.9420    -0.6810 ca         1 3SZ      -0.115000
     12 CAL         -2.7290    -0.6020    -0.5980 ca         1 3SZ      -0.035000
     13 CAM         -0.4650     1.5000    -2.4160 c3         1 3SZ      -0.112400
     14 CAN         -2.2240    -4.5190     0.4200 c6         1 3SZ       0.095400
     15 CAO         -1.8550    -4.0620    -0.9690 c6         1 3SZ       0.094400
     16 CAP          0.8590     1.0600    -1.8070 c3         1 3SZ       0.226800
     17 CAQ         -1.0440     2.7960    -1.8560 c3         1 3SZ       0.233800
     18 CAR          0.8940     2.4450     0.2300 c3         1 3SZ       0.202800
     19 CAS         -0.4860     2.9700     0.5960 c3         1 3SZ       0.220800
     20 OAT         -1.8420    -3.5400     1.3770 os         1 3SZ      -0.298900
     21 OAU         -2.5220    -2.8440    -1.2710 os         1 3SZ      -0.306900
     22 CAV          5.0480    -0.9360    -0.8740 ca         1 3SZ       0.143600
     23 CAW          3.1090    -0.2170     0.3630 ca         1 3SZ      -0.253500
     24 CAX         -2.6290     0.3730     0.3860 ca         1 3SZ      -0.308500
     25 CAY         -2.1080    -2.2680     1.0270 ca         1 3SZ       0.129100
     26 CAZ         -2.4530    -1.9200    -0.2860 ca         1 3SZ       0.044100
     27 NBA          0.8320     1.1110    -0.3480 n3         1 3SZ      -0.763500
     28 NBB         -1.4650     2.7360    -0.4580 n3         1 3SZ      -0.768500
     29 SBC          1.3400    -0.1770     0.5320 sy         1 3SZ       1.322200
     30 SBD         -2.9050     2.0670    -0.0440 sy         1 3SZ       1.330200
     31 HNAA         6.5860    -1.8510    -1.8310 hn         1 3SZ       0.400300
     32 HNAB         5.0700    -2.3630    -2.3180 hn         1 3SZ       0.400300
     33 HAF          5.8960     1.0780     1.7260 ha         1 3SZ       0.135000
     34 HAG          6.9130    -0.1730    -0.1190 ha         1 3SZ       0.134000
     35 HAH          3.4510     1.0590     2.0750 ha         1 3SZ       0.153000
     36 HAJ         -1.7690    -1.5640     3.0130 ha         1 3SZ       0.154000
     37 HAK          3.0340    -1.5240    -1.3440 ha         1 3SZ       0.149000
     38 HAL         -3.0150    -0.3560    -1.6120 ha         1 3SZ       0.160000
     39 HAM         -0.3100     1.6360    -3.4890 hc         1 3SZ       0.060200
     40 HAMA        -1.1940     0.6970    -2.3090 hc         1 3SZ       0.060200
     41 HAN         -3.3000    -4.7060     0.4880 h1         1 3SZ       0.067200
     42 HANA        -1.6980    -5.4380     0.6750 h1         1 3SZ       0.067200
     43 HAO         -0.7720    -3.9290    -1.0570 h1         1 3SZ       0.072200
     44 HAOA        -2.1750    -4.7950    -1.7080 h1         1 3SZ       0.072200
     45 HAP          1.0770     0.0480    -2.1430 h1         1 3SZ       0.050200
     46 HAPA         1.6730     1.6970    -2.1670 h1         1 3SZ       0.050200
     47 HAQ         -0.3200     3.6100    -1.9330 h1         1 3SZ       0.063700
     48 HAQA        -1.8910     3.1040    -2.4650 h1         1 3SZ       0.063700
     49 HAR          1.3810     3.1050    -0.4900 h1         1 3SZ       0.055700
     50 HARA         1.5160     2.4780     1.1240 h1         1 3SZ       0.055700
     51 HAS         -0.8050     2.4820     1.5150 h1         1 3SZ       0.065200
     52 HASA        -0.4080     4.0390     0.8130 h1         1 3SZ       0.065200
     53 HAI         -2.2370     0.7850     2.4670 ha         1 3SZ       0.158000
@<TRIPOS>BOND
     1     1    22 1   
     2     1    31 1   
     3     1    32 1   
     4     2    29 2   
     5     3    29 2   
     6     4    30 2   
     7     5    30 2   
     8     6     7 ar  
     9     6     8 ar  
    10     6    33 1   
    11     7    22 ar  
    12     7    34 1   
    13     8    23 ar  
    14     8    35 1   
    15     9    10 ar  
    16     9    24 ar  
    17     9    53 1   
    18    10    25 ar  
    19    10    36 1   
    20    11    22 ar  
    21    11    23 ar  
    22    11    37 1   
    23    12    24 ar  
    24    12    26 ar  
    25    12    38 1   
    26    13    16 1   
    27    13    17 1   
    28    13    39 1   
    29    13    40 1   
    30    14    15 1   
    31    14    20 1   
    32    14    41 1   
    33    14    42 1   
    34    15    21 1   
    35    15    43 1   
    36    15    44 1   
    37    16    27 1   
    38    16    45 1   
    39    16    46 1   
    40    17    28 1   
    41    17    47 1   
    42    17    48 1   
    43    18    19 1   
    44    18    27 1   
    45    18    49 1   
    46    18    50 1   
    47    19    28 1   
    48    19    51 1   
    49    19    52 1   
    50    20    25 1   
    51    21    26 1   
    52    23    29 1   
    53    24    30 1   
    54    25    26 ar  
    55    27    29 1   
    56    28    30 1   
@<TRIPOS>SUBSTRUCTURE
     1 3SZ         1 TEMP              0 ****  ****    0 ROOT
