@<TRIPOS>MOLECULE
3SZ
   53    56     1     0     0
SMALL
No Charge or Current Charge


@<TRIPOS>ATOM
      1 NAA          6.1820    -0.2830    -2.8380 nv         1 3SZ      -1.080000
      2 OAB          1.2530    -1.8750    -1.8770 o          1 3SZ      -0.538500
      3 OAC          1.2050    -1.7420     0.6710 o          1 3SZ      -0.538500
      4 OAD         -3.0010     1.6370    -2.1300 o          1 3SZ      -0.544000
      5 OAE         -3.8160     2.9980    -0.1180 o          1 3SZ      -0.544000
      6 CAF          5.1710     0.2630     0.6670 ca         1 3SZ      -0.087000
      7 CAG          5.9570     0.2210    -0.4980 ca         1 3SZ      -0.131000
      8 CAH          3.8300    -0.1570     0.6290 ca         1 3SZ      -0.068000
      9 CAI         -3.2850     0.5280     1.6040 ca         1 3SZ      -0.008000
     10 CAJ         -3.2720    -0.6590     2.3570 ca         1 3SZ      -0.131000
     11 CAK          4.0670    -0.6610    -1.7450 ca         1 3SZ      -0.097000
     12 CAL         -2.4910    -0.7060    -0.3510 ca         1 3SZ      -0.017000
     13 CAM          0.1810     2.0730    -2.4710 c3         1 3SZ      -0.112400
     14 CAN         -2.7600    -4.2800     1.8120 c6         1 3SZ       0.118600
     15 CAO         -1.7040    -4.1590     0.6920 c6         1 3SZ       0.117600
     16 CAP          1.2480     1.3020    -1.6730 c3         1 3SZ       0.226800
     17 CAQ         -0.5930     3.1520    -1.6900 c3         1 3SZ       0.233800
     18 CAR          0.2550     0.8760     0.5920 c3         1 3SZ       0.202800
     19 CAS         -0.4910     2.2460     0.6500 c3         1 3SZ       0.220800
     20 OAT         -2.8790    -3.0240     2.5170 os         1 3SZ      -0.322100
     21 OAU         -2.0480    -3.0650    -0.1860 os         1 3SZ      -0.330100
     22 CAV          5.4090    -0.2410    -1.7050 ca         1 3SZ       0.282000
     23 CAW          3.2660    -0.6180    -0.5790 ca         1 3SZ      -0.253500
     24 CAX         -2.8880     0.5090     0.2490 ca         1 3SZ      -0.308500
     25 CAY         -2.8750    -1.8670     1.7630 ca         1 3SZ       0.129100
     26 CAZ         -2.4700    -1.8890     0.4050 ca         1 3SZ       0.044100
     27 NBA          0.6720     0.3230    -0.7300 n3         1 3SZ      -0.763500
     28 NBB         -1.3250     2.6760    -0.5020 n3         1 3SZ      -0.768500
     29 SBC          1.5350    -1.1510    -0.6310 sy         1 3SZ       1.180600
     30 SBD         -2.8930     2.0290    -0.7200 sy         1 3SZ       1.188600
     31 HNAA         7.1840    -0.1090    -2.7760 hn         1 3SZ       0.455500
     32 HNAB         5.8370    -0.7450    -3.6770 hn         1 3SZ       0.455500
     33 HAF          5.6020     0.6190     1.6000 ha         1 3SZ       0.117000
     34 HAG          6.9920     0.5480    -0.4590 ha         1 3SZ       0.116000
     35 HAH          3.2350    -0.1240     1.5410 ha         1 3SZ       0.135000
     36 HAJ         -3.5770    -0.6450     3.4000 ha         1 3SZ       0.136000
     37 HAK          3.6490    -1.0170    -2.6820 ha         1 3SZ       0.131000
     38 HAL         -2.1670    -0.7340    -1.3890 ha         1 3SZ       0.142000
     39 HAM          0.6780     2.5660    -3.3130 hc         1 3SZ       0.060200
     40 HAMA        -0.5180     1.3540    -2.9100 hc         1 3SZ       0.060200
     41 HAN         -3.7340    -4.5340     1.3710 h1         1 3SZ       0.067200
     42 HANA        -2.4860    -5.0720     2.5220 h1         1 3SZ       0.067200
     43 HAO         -0.7180    -3.9640     1.1370 h1         1 3SZ       0.072200
     44 HAOA        -1.6440    -5.0890     0.1110 h1         1 3SZ       0.072200
     45 HAP          1.8500     0.7820    -2.4300 h1         1 3SZ       0.050200
     46 HAPA         1.9230     2.0010    -1.1600 h1         1 3SZ       0.050200
     47 HAQ          0.1300     3.9180    -1.3820 h1         1 3SZ       0.063700
     48 HAQA        -1.2840     3.6540    -2.3820 h1         1 3SZ       0.063700
     49 HAR          1.1370     0.9800     1.2380 h1         1 3SZ       0.055700
     50 HARA        -0.3900     0.1460     1.0950 h1         1 3SZ       0.055700
     51 HAS         -1.0860     2.2680     1.5730 h1         1 3SZ       0.065200
     52 HASA         0.2870     3.0060     0.7980 h1         1 3SZ       0.065200
     53 HAI         -3.5990     1.4580     2.0770 ha         1 3SZ       0.140000
@<TRIPOS>BOND
     1     1    22 1   
     2     1    31 1   
     3     1    32 1   
     4     2    29 2   
     5     3    29 2   
     6     4    30 2   
     7     5    30 2   
     8     6     7 ar  
     9     6     8 ar  
    10     6    33 1   
    11     7    22 ar  
    12     7    34 1   
    13     8    23 ar  
    14     8    35 1   
    15     9    10 ar  
    16     9    24 ar  
    17     9    53 1   
    18    10    25 ar  
    19    10    36 1   
    20    11    22 ar  
    21    11    23 ar  
    22    11    37 1   
    23    12    24 ar  
    24    12    26 ar  
    25    12    38 1   
    26    13    16 1   
    27    13    17 1   
    28    13    39 1   
    29    13    40 1   
    30    14    15 1   
    31    14    20 1   
    32    14    41 1   
    33    14    42 1   
    34    15    21 1   
    35    15    43 1   
    36    15    44 1   
    37    16    27 1   
    38    16    45 1   
    39    16    46 1   
    40    17    28 1   
    41    17    47 1   
    42    17    48 1   
    43    18    19 1   
    44    18    27 1   
    45    18    49 1   
    46    18    50 1   
    47    19    28 1   
    48    19    51 1   
    49    19    52 1   
    50    20    25 1   
    51    21    26 1   
    52    23    29 1   
    53    24    30 1   
    54    25    26 ar  
    55    27    29 1   
    56    28    30 1   
@<TRIPOS>SUBSTRUCTURE
     1 3SZ         1 TEMP              0 ****  ****    0 ROOT
