@<TRIPOS>MOLECULE
3T0
   41    43     1     0     0
SMALL
abcg2


@<TRIPOS>ATOM
      1 CAA         -2.4410     4.4800    -0.8630 c3         1 3T0       0.146900
      2 OAD          1.8580     1.3040     1.9980 o          1 3T0      -0.495000
      3 CAF         -0.8140     1.1330     0.9080 ce         1 3T0      -0.012200
      4 CAG          5.8250     1.4610    -0.3340 ca         1 3T0      -0.117500
      5 CAH          5.8450    -0.6680    -1.4170 ca         1 3T0      -0.117500
      6 CAI         -4.8090     1.0310    -0.5390 ca         1 3T0      -0.025000
      7 CAJ          4.9690     0.9610     0.6360 ca         1 3T0      -0.083000
      8 CAK          4.9900    -1.1720    -0.4480 ca         1 3T0      -0.083000
      9 CAL         -4.0430     2.1780    -0.6840 ca         1 3T0      -0.207000
     10 CAM         -2.9700    -0.0620     0.5580 ca         1 3T0      -0.023000
     11 CAN          3.6020    -0.9000     1.6370 c3         1 3T0       0.157300
     12 OAO         -1.9260     3.2740    -0.3230 os         1 3T0      -0.335100
     13 SAP         -0.0890    -1.4460     0.1690 ss         1 3T0      -0.177200
     14 CAQ          6.2790     0.6550    -1.3770 ca         1 3T0      -0.063300
     15 CAR         -4.2710    -0.0820     0.0860 ca         1 3T0      -0.064900
     16 CAS          4.5390    -0.3620     0.5900 ca         1 3T0      -0.127300
     17 CAT         -2.1820     1.0780     0.4070 ca         1 3T0      -0.125800
     18 CAU         -2.7340     2.2150    -0.2130 ca         1 3T0       0.184100
     19 CAV          1.5910    -1.8540     0.5630 c          1 3T0       0.593600
     20 CAW          1.4470     0.3160     1.4390 c          1 3T0       0.585200
     21 CAX          0.0840     0.1420     0.8860 cd         1 3T0      -0.131600
     22 NAY          2.2010    -0.8170     1.2240 n          1 3T0      -0.381400
     23 HAA         -2.7420     4.3600    -1.9050 h1         1 3T0       0.047700
     24 HAAA        -3.2900     4.8500    -0.2840 h1         1 3T0       0.047700
     25 HAAB        -1.6340     5.2060    -0.8100 h1         1 3T0       0.047700
     26 HAB          8.2630     1.1350    -2.0460 hc         1 3T0       0.043367
     27 HABA         7.1820     0.6190    -3.3320 hc         1 3T0       0.043367
     28 HABB         7.0270     2.2340    -2.6370 hc         1 3T0       0.043367
     29 HAF         -0.4760     2.0740     1.3290 ha         1 3T0       0.216000
     30 HAG          6.1470     2.4940    -0.2760 ha         1 3T0       0.112500
     31 HAH          6.1860    -1.3180    -2.2140 ha         1 3T0       0.112500
     32 HAI         -5.8220     1.0250    -0.9160 ha         1 3T0       0.131000
     33 HAJ          4.6320     1.6070     1.4360 ha         1 3T0       0.123500
     34 HAK          4.6740    -2.2070    -0.5030 ha         1 3T0       0.123500
     35 HAL         -4.4870     3.0320    -1.1740 ha         1 3T0       0.126000
     36 HAM         -2.5760    -0.9170     1.0930 ha         1 3T0       0.143000
     37 HAN          3.8180    -1.9440     1.8570 h1         1 3T0       0.073200
     38 HANA         3.6990    -0.3460     2.5690 h1         1 3T0       0.073200
     39 BRAE        -5.3220    -1.6320     0.3150 br         1 3T0      -0.084100
     40 OAC          2.0930    -2.9080     0.2850 o          1 3T0      -0.473000
     41 CAB          7.2330     1.1890    -2.4050 c3         1 3T0      -0.048800
@<TRIPOS>BOND
     1     1    12 1   
     2     1    23 1   
     3     1    24 1   
     4     1    25 1   
     5     2    20 2   
     6     3    17 1   
     7     3    21 2   
     8     3    29 1   
     9     4     7 ar  
    10     4    14 ar  
    11     4    30 1   
    12     5     8 ar  
    13     5    14 ar  
    14     5    31 1   
    15     6     9 ar  
    16     6    15 ar  
    17     6    32 1   
    18     7    16 ar  
    19     7    33 1   
    20     8    16 ar  
    21     8    34 1   
    22     9    18 ar  
    23     9    35 1   
    24    10    15 ar  
    25    10    17 ar  
    26    10    36 1   
    27    11    16 1   
    28    11    22 1   
    29    11    37 1   
    30    11    38 1   
    31    12    18 1   
    32    13    19 1   
    33    13    21 1   
    34    14    41 1   
    35    15    39 1   
    36    17    18 ar  
    37    19    22 1   
    38    19    40 2   
    39    20    21 1   
    40    20    22 1   
    41    26    41 1   
    42    27    41 1   
    43    28    41 1   
@<TRIPOS>SUBSTRUCTURE
     1 3T0         1 TEMP              0 ****  ****    0 ROOT
