@<TRIPOS>MOLECULE
3T0
   41    43     1     0     0
SMALL
No Charge or Current Charge


@<TRIPOS>ATOM
      1 CAA         -2.4190     4.5380    -0.9230 c3         1 3T0       0.146900
      2 OAD          1.8830     1.2720     2.1360 o          1 3T0      -0.495000
      3 CAF         -0.8960     1.0980     1.0510 ce         1 3T0      -0.012200
      4 CAG          5.8350     1.4880    -0.3780 ca         1 3T0      -0.117500
      5 CAH          5.9850    -0.7100    -1.4000 ca         1 3T0      -0.117500
      6 CAI         -4.9040     1.0400    -0.5500 ca         1 3T0      -0.025000
      7 CAJ          4.9560     0.9770     0.5930 ca         1 3T0      -0.083000
      8 CAK          5.1070    -1.2220    -0.4300 ca         1 3T0      -0.083000
      9 CAL         -4.1110     2.1920    -0.6820 ca         1 3T0      -0.207000
     10 CAM         -3.0880    -0.0730     0.6290 ca         1 3T0      -0.023000
     11 CAN          3.6270    -0.9340     1.6190 c3         1 3T0       0.157300
     12 OAO         -1.9870     3.3300    -0.2720 os         1 3T0      -0.335100
     13 SAP         -0.1020    -1.3860     0.1230 ss         1 3T0      -0.177200
     14 CAQ          6.3530     0.6480    -1.3810 ca         1 3T0      -0.063300
     15 CAR         -4.3910    -0.0880     0.1080 ca         1 3T0      -0.064900
     16 CAS          4.5860    -0.3820     0.5720 ca         1 3T0      -0.127300
     17 CAT         -2.2790     1.0730     0.4890 ca         1 3T0      -0.125800
     18 CAU         -2.7980     2.2150    -0.1600 ca         1 3T0       0.184100
     19 CAV          1.6110    -1.8600     0.4840 c          1 3T0       0.593600
     20 CAW          1.4670     0.3050     1.5140 c          1 3T0       0.585200
     21 CAX          0.1040     0.1490     0.9690 cd         1 3T0      -0.131600
     22 NAY          2.2120    -0.8310     1.2090 n          1 3T0      -0.381400
     23 HAA         -2.6710     4.3460    -1.9740 h1         1 3T0       0.047700
     24 HAAA        -3.2990     4.9590    -0.4190 h1         1 3T0       0.047700
     25 HAAB        -1.6210     5.2900    -0.8970 h1         1 3T0       0.047700
     26 HAB          8.3460     1.1180    -2.0930 hc         1 3T0       0.043367
     27 HABA         7.2160     0.6590    -3.3780 hc         1 3T0       0.043367
     28 HABB         7.1040     2.2590    -2.6350 hc         1 3T0       0.043367
     29 HAF         -0.6200     2.0270     1.5540 ha         1 3T0       0.216000
     30 HAG          6.1130     2.5390    -0.3490 ha         1 3T0       0.112500
     31 HAH          6.3810    -1.3710    -2.1680 ha         1 3T0       0.112500
     32 HAI         -5.9150     1.0240    -0.9520 ha         1 3T0       0.131000
     33 HAJ          4.5620     1.6400     1.3610 ha         1 3T0       0.123500
     34 HAK          4.8300    -2.2750    -0.4600 ha         1 3T0       0.123500
     35 HAL         -4.5330     3.0530    -1.1910 ha         1 3T0       0.126000
     36 HAM         -2.7140    -0.9480     1.1540 ha         1 3T0       0.143000
     37 HAN          3.8740    -1.9860     1.8200 h1         1 3T0       0.073200
     38 HANA         3.7740    -0.3980     2.5660 h1         1 3T0       0.073200
     39 BrAE        -5.4750    -1.6520     0.3030 br         1 3T0      -0.084100
     40 OAC          2.1470    -2.9060     0.1500 o          1 3T0      -0.473000
     41 CAB          7.3060     1.2010    -2.4290 c3         1 3T0      -0.048800
@<TRIPOS>BOND
     1     1    12 1   
     2     1    23 1   
     3     1    24 1   
     4     1    25 1   
     5     2    20 2   
     6     3    17 1   
     7     3    21 2   
     8     3    29 1   
     9     4     7 ar  
    10     4    14 ar  
    11     4    30 1   
    12     5     8 ar  
    13     5    14 ar  
    14     5    31 1   
    15     6     9 ar  
    16     6    15 ar  
    17     6    32 1   
    18     7    16 ar  
    19     7    33 1   
    20     8    16 ar  
    21     8    34 1   
    22     9    18 ar  
    23     9    35 1   
    24    10    15 ar  
    25    10    17 ar  
    26    10    36 1   
    27    11    16 1   
    28    11    22 1   
    29    11    37 1   
    30    11    38 1   
    31    12    18 1   
    32    13    19 1   
    33    13    21 1   
    34    14    41 1   
    35    15    39 1   
    36    17    18 ar  
    37    19    22 1   
    38    19    40 2   
    39    20    21 1   
    40    20    22 1   
    41    26    41 1   
    42    27    41 1   
    43    28    41 1   
@<TRIPOS>SUBSTRUCTURE
     1 3T0         1 TEMP              0 ****  ****    0 ROOT
