@<TRIPOS>MOLECULE
3T1
   55    59     1     0     0
SMALL
bcc


@<TRIPOS>ATOM
      1 C1           1.6890    -1.6870     0.6190 c          1 3T1       0.589300
      2 O1           1.2070    -2.7870     0.8690 o          1 3T1      -0.543100
      3 C2           3.0820    -1.6030     0.0420 c6         1 3T1      -0.175400
      4 C3           3.7610    -0.2810     0.3650 c6         1 3T1      -0.000400
      5 C4           2.8530     0.8480    -0.0970 c6         1 3T1      -0.063200
      6 N5           0.8310     1.9400     0.4620 nu         1 3T1      -0.634400
      7 C6          -0.9900     3.4170    -0.0000 ca         1 3T1      -0.171000
      8 C7          -2.2980     3.8310     0.1810 ca         1 3T1      -0.100000
      9 C8          -3.1420     3.1200     1.0250 ca         1 3T1      -0.144000
     10 C9          -2.6530     2.0080     1.6930 ca         1 3T1      -0.077000
     11 N10         -0.8810     0.4750     2.2850 nu         1 3T1      -0.713600
     12 C11         -0.4180    -0.6570     1.4840 c3         1 3T1       0.301000
     13 C12          5.1390    -0.1740    -0.2370 ca         1 3T1      -0.085300
     14 C13          6.2520    -0.0120     0.5820 ca         1 3T1      -0.122000
     15 C14          7.5290     0.0900     0.0430 ca         1 3T1      -0.126000
     16 C15          7.7110     0.0310    -1.3310 ca         1 3T1      -0.123000
     17 C16          6.6070    -0.1310    -2.1600 ca         1 3T1      -0.126000
     18 C17          5.3340    -0.2330    -1.6170 ca         1 3T1      -0.122000
     19 C18         -1.5220    -1.0540     0.5260 ca         1 3T1      -0.055300
     20 C19         -1.3700    -0.9930    -0.8430 ca         1 3T1      -0.099000
     21 C20         -2.4380    -1.3430    -1.6630 ca         1 3T1      -0.046600
     22 CL1         -2.2480    -1.2690    -3.3900 cl         1 3T1      -0.125400
     23 C21         -3.6600    -1.7490    -1.1590 ca         1 3T1       0.124100
     24 O21         -4.7210    -2.0920    -1.9040 oh         1 3T1      -0.470100
     25 C22         -3.8050    -1.8080     0.2420 ca         1 3T1       0.109100
     26 O22         -5.0160    -2.2100     0.6680 os         1 3T1      -0.297900
     27 C23         -2.7460    -1.4650     1.0600 ca         1 3T1      -0.161000
     28 C24         -5.2410    -2.2710     2.0620 c3         1 3T1       0.122700
     29 C25          1.4530     0.7360     0.4500 c2         1 3T1       0.211800
     30 C26         -0.5050     2.2920     0.6690 ca         1 3T1       0.121600
     31 C27         -1.3350     1.5930     1.5440 ca         1 3T1       0.069600
     32 C28          0.9300    -0.4690     0.8330 ce         1 3T1      -0.360400
     33 H2           3.6630    -2.4500     0.4120 hc         1 3T1       0.075200
     34 H2A          3.0010    -1.7270    -1.0440 hc         1 3T1       0.075200
     35 H3           3.8620    -0.2060     1.4520 hc         1 3T1       0.063700
     36 H4           3.2780     1.8100     0.2000 hc         1 3T1       0.062200
     37 H4A          2.7920     0.8620    -1.1910 hc         1 3T1       0.062200
     38 H61          1.3890     2.6950     0.0930 hn         1 3T1       0.431800
     39 H6          -0.3350     3.9630    -0.6690 ha         1 3T1       0.129000
     40 H7          -2.6580     4.7060    -0.3450 ha         1 3T1       0.134000
     41 H8          -4.1680     3.4310     1.1640 ha         1 3T1       0.138000
     42 H9          -3.2890     1.4430     2.3620 ha         1 3T1       0.146000
     43 HN10        -0.1650     0.7400     2.9510 hn         1 3T1       0.381800
     44 H11         -0.3040    -1.4870     2.1890 h1         1 3T1       0.089700
     45 H13          6.1200     0.0360     1.6570 ha         1 3T1       0.129500
     46 H14          8.3800     0.2160     0.7000 ha         1 3T1       0.133000
     47 H15          8.7040     0.1110    -1.7540 ha         1 3T1       0.133000
     48 H16          6.7370    -0.1770    -3.2340 ha         1 3T1       0.133000
     49 H17          4.4870    -0.3580    -2.2820 ha         1 3T1       0.129500
     50 H19         -0.4370    -0.6750    -1.2870 ha         1 3T1       0.146000
     51 HO21        -4.5200    -2.0020    -2.8440 ho         1 3T1       0.431000
     52 H23         -2.8540    -1.4960     2.1370 ha         1 3T1       0.149000
     53 H24         -5.1230    -1.2920     2.5350 h1         1 3T1       0.040033
     54 H24A        -6.2670    -2.6030     2.1960 h1         1 3T1       0.040033
     55 H24B        -4.5720    -2.9820     2.5530 h1         1 3T1       0.040033
@<TRIPOS>BOND
     1     1     2 2   
     2     1     3 1   
     3     1    32 1   
     4     3     4 1   
     5     3    33 1   
     6     3    34 1   
     7     4     5 1   
     8     4    13 1   
     9     4    35 1   
    10     5    29 1   
    11     5    36 1   
    12     5    37 1   
    13     6    29 1   
    14     6    30 1   
    15     6    38 1   
    16     7     8 ar  
    17     7    30 ar  
    18     7    39 1   
    19     8     9 ar  
    20     8    40 1   
    21     9    10 ar  
    22     9    41 1   
    23    10    31 ar  
    24    10    42 1   
    25    11    12 1   
    26    11    31 1   
    27    11    43 1   
    28    12    19 1   
    29    12    32 1   
    30    12    44 1   
    31    13    14 ar  
    32    13    18 ar  
    33    14    15 ar  
    34    14    45 1   
    35    15    16 ar  
    36    15    46 1   
    37    16    17 ar  
    38    16    47 1   
    39    17    18 ar  
    40    17    48 1   
    41    18    49 1   
    42    19    20 ar  
    43    19    27 ar  
    44    20    21 ar  
    45    20    50 1   
    46    21    22 1   
    47    21    23 ar  
    48    23    24 1   
    49    23    25 ar  
    50    24    51 1   
    51    25    26 1   
    52    25    27 ar  
    53    26    28 1   
    54    27    52 1   
    55    28    53 1   
    56    28    54 1   
    57    28    55 1   
    58    29    32 2   
    59    30    31 ar  
@<TRIPOS>SUBSTRUCTURE
     1 3T1         1 TEMP              0 ****  ****    0 ROOT
