@<TRIPOS>MOLECULE
3T1
   55    59     1     0     0
SMALL
No Charge or Current Charge


@<TRIPOS>ATOM
      1 C1           2.1250    -1.3430     1.7770 c          1 3T1       0.589300
      2 O1           2.0850    -2.0490     2.7760 o          1 3T1      -0.543100
      3 C2           3.2390    -1.4830     0.7510 c6         1 3T1      -0.175400
      4 C3           3.8590    -0.0810     0.5610 c6         1 3T1      -0.000400
      5 C4           2.7740     0.9410     0.1120 c6         1 3T1      -0.063200
      6 N5           0.4020     1.6160     0.2500 nu         1 3T1      -0.828000
      7 C6          -1.4250     3.1800     0.3050 ca         1 3T1      -0.153000
      8 C7          -2.6040     3.6950     0.8700 ca         1 3T1      -0.082000
      9 C8          -3.1760     3.0700     1.9880 ca         1 3T1      -0.126000
     10 C9          -2.5750     1.9250     2.5370 ca         1 3T1      -0.059000
     11 N10         -0.8700     0.2120     2.5300 nu         1 3T1      -0.907200
     12 C11         -0.3680    -0.8950     1.7160 c3         1 3T1       0.301000
     13 C12          5.0700    -0.0950    -0.3850 ca         1 3T1      -0.085300
     14 C13          6.3160     0.3930     0.0580 ca         1 3T1      -0.104000
     15 C14          7.4300     0.3860    -0.8000 ca         1 3T1      -0.108000
     16 C15          7.3080    -0.1090    -2.1080 ca         1 3T1      -0.105000
     17 C16          6.0700    -0.5950    -2.5590 ca         1 3T1      -0.108000
     18 C17          4.9550    -0.5880    -1.7030 ca         1 3T1      -0.104000
     19 C18         -1.2890    -1.2220     0.5240 ca         1 3T1      -0.055300
     20 C19         -0.7610    -1.4590    -0.7620 ca         1 3T1      -0.081000
     21 C20         -1.6080    -1.7560    -1.8400 ca         1 3T1       0.045000
     22 Cl1         -0.9010    -2.0340    -3.4330 cl         1 3T1      -0.217000
     23 C21         -3.0030    -1.8290    -1.6540 ca         1 3T1       0.124100
     24 O21         -3.8180    -2.1170    -2.7220 oh         1 3T1      -0.509100
     25 C22         -3.5490    -1.6090    -0.3680 ca         1 3T1       0.109100
     26 O22         -4.9240    -1.6860    -0.2050 os         1 3T1      -0.321100
     27 C23         -2.6860    -1.3160     0.7130 ca         1 3T1      -0.143000
     28 C24         -5.5690    -1.4360     1.0570 c3         1 3T1       0.145900
     29 C25          1.3620     0.6950     0.6620 c2         1 3T1       0.211800
     30 C26         -0.8090     2.0330     0.8410 ca         1 3T1       0.260000
     31 C27         -1.3980     1.3920     1.9760 ca         1 3T1       0.208000
     32 C28          1.0350    -0.4150     1.3760 ce         1 3T1      -0.360400
     33 H2           3.9690    -2.2410     1.0640 hc         1 3T1       0.075200
     34 H2A          2.7780    -1.7660    -0.2040 hc         1 3T1       0.075200
     35 H3           4.2070     0.2420     1.5530 hc         1 3T1       0.063700
     36 H4           3.1030     1.9550     0.3780 hc         1 3T1       0.062200
     37 H4A          2.7070     0.9290    -0.9850 hc         1 3T1       0.062200
     38 H61          0.7000     2.2170    -0.5170 hn         1 3T1       0.487000
     39 H6          -0.9870     3.6830    -0.5530 ha         1 3T1       0.111000
     40 H7          -3.0700     4.5820     0.4450 ha         1 3T1       0.116000
     41 H8          -4.0880     3.4690     2.4270 ha         1 3T1       0.120000
     42 H9          -3.0330     1.4420     3.3950 ha         1 3T1       0.128000
     43 HN10        -1.2590    -0.0550     3.4320 hn         1 3T1       0.437000
     44 H11         -0.3100    -1.8030     2.3360 h1         1 3T1       0.089700
     45 H13          6.4260     0.7800     1.0690 ha         1 3T1       0.111500
     46 H14          8.3880     0.7640    -0.4490 ha         1 3T1       0.115000
     47 H15          8.1700    -0.1150    -2.7720 ha         1 3T1       0.115000
     48 H16          5.9730    -0.9770    -3.5730 ha         1 3T1       0.115000
     49 H17          4.0030    -0.9640    -2.0690 ha         1 3T1       0.111500
     50 H19          0.3090    -1.4110    -0.9380 ha         1 3T1       0.128000
     51 HO21        -3.2480    -2.2350    -3.5130 ho         1 3T1       0.470000
     52 H23         -3.0850    -1.1510     1.7090 ha         1 3T1       0.131000
     53 H24         -5.3550    -0.4190     1.4090 h1         1 3T1       0.040033
     54 H24A        -6.6560    -1.5390     0.9540 h1         1 3T1       0.040033
     55 H24B        -5.2300    -2.1520     1.8170 h1         1 3T1       0.040033
@<TRIPOS>BOND
     1     1     2 2   
     2     1     3 1   
     3     1    32 1   
     4     3     4 1   
     5     3    33 1   
     6     3    34 1   
     7     4     5 1   
     8     4    13 1   
     9     4    35 1   
    10     5    29 1   
    11     5    36 1   
    12     5    37 1   
    13     6    29 1   
    14     6    30 1   
    15     6    38 1   
    16     7     8 ar  
    17     7    30 ar  
    18     7    39 1   
    19     8     9 ar  
    20     8    40 1   
    21     9    10 ar  
    22     9    41 1   
    23    10    31 ar  
    24    10    42 1   
    25    11    12 1   
    26    11    31 1   
    27    11    43 1   
    28    12    19 1   
    29    12    32 1   
    30    12    44 1   
    31    13    14 ar  
    32    13    18 ar  
    33    14    15 ar  
    34    14    45 1   
    35    15    16 ar  
    36    15    46 1   
    37    16    17 ar  
    38    16    47 1   
    39    17    18 ar  
    40    17    48 1   
    41    18    49 1   
    42    19    20 ar  
    43    19    27 ar  
    44    20    21 ar  
    45    20    50 1   
    46    21    22 1   
    47    21    23 ar  
    48    23    24 1   
    49    23    25 ar  
    50    24    51 1   
    51    25    26 1   
    52    25    27 ar  
    53    26    28 1   
    54    27    52 1   
    55    28    53 1   
    56    28    54 1   
    57    28    55 1   
    58    29    32 2   
    59    30    31 ar  
@<TRIPOS>SUBSTRUCTURE
     1 3T1         1 TEMP              0 ****  ****    0 ROOT
