@<TRIPOS>MOLECULE
3T4
   38    39     1     0     0
SMALL
bcc


@<TRIPOS>ATOM
      1 C1          -4.0520    -0.4370    -0.3400 ca         1 3T4      -0.147200
      2 CL1          4.3510    -3.5710     1.9210 cl         1 3T4      -0.138400
      3 N2          -4.4520    -1.7690     0.0920 no         1 3T4       0.316200
      4 O3          -3.6030    -2.6220     0.1510 o          1 3T4      -0.204000
      5 O4          -5.6160    -1.9420     0.3610 o          1 3T4      -0.204000
      6 C5          -2.8010    -0.2810    -0.8990 ca         1 3T4      -0.063000
      7 C6          -2.3750     0.9720    -1.3230 ca         1 3T4      -0.064300
      8 C7          -1.0240     1.1430    -1.9690 c3         1 3T4       0.150300
      9 N8          -0.0160     0.2800    -1.4100 ns         1 3T4      -0.579900
     10 C9           0.4380     0.4480    -0.1570 c          1 3T4       0.708700
     11 C10          1.4350    -0.5730     0.2900 ca         1 3T4      -0.218600
     12 C11          1.0100    -1.8450     0.6330 ca         1 3T4      -0.063000
     13 C12          1.8940    -2.7900     1.1410 ca         1 3T4      -0.202000
     14 C13          3.2180    -2.4230     1.2890 ca         1 3T4       0.086400
     15 C15          3.6820    -1.1610     0.9440 ca         1 3T4      -0.236000
     16 C16          2.7830    -0.2250     0.4370 ca         1 3T4       0.220100
     17 O17          3.1160     1.0100     0.0510 os         1 3T4      -0.257900
     18 C18          4.4750     1.4070     0.1210 c3         1 3T4      -0.026600
     19 C19          4.6670     2.8060    -0.4870 c          1 3T4       0.941600
     20 O20          3.6860     3.3720    -0.9890 o          1 3T4      -0.811800
     21 O21          5.8410     3.2170    -0.4110 o          1 3T4      -0.811800
     22 O22          0.0400     1.3310     0.5830 o          1 3T4      -0.571100
     23 C23         -3.2290     2.0560    -1.1730 ca         1 3T4      -0.079000
     24 C24         -4.4860     1.8990    -0.6160 ca         1 3T4      -0.105000
     25 C25         -4.9220     0.6470    -0.1920 ca         1 3T4       0.039000
     26 C26         -6.2220     0.5790     0.3940 cg         1 3T4       0.244800
     27 N27         -7.2750     0.6590     0.8520 n1         1 3T4      -0.343800
     28 H5          -2.1500    -1.1370    -1.0110 ha         1 3T4       0.174000
     29 H7          -1.1060     0.9040    -3.0300 h1         1 3T4       0.068200
     30 H7A         -0.7190     2.1890    -1.9040 h1         1 3T4       0.068200
     31 HN8          0.3820    -0.4410    -1.9880 hn         1 3T4       0.324500
     32 H11         -0.0330    -2.1140     0.5170 ha         1 3T4       0.129000
     33 H12          1.5520    -3.7780     1.4140 ha         1 3T4       0.140000
     34 H15          4.7290    -0.9270     1.0720 ha         1 3T4       0.162000
     35 H18          4.8170     1.4130     1.1630 h1         1 3T4       0.023700
     36 H18A         5.1100     0.6980    -0.4230 h1         1 3T4       0.023700
     37 H23         -2.9110     3.0420    -1.4860 ha         1 3T4       0.154000
     38 H24         -5.1350     2.7550    -0.4970 ha         1 3T4       0.151000
@<TRIPOS>BOND
     1     1     3 1   
     2     1     6 ar  
     3     1    25 ar  
     4     2    14 1   
     5     3     4 1   
     6     3     5 1   
     7     6     7 ar  
     8     6    28 1   
     9     7     8 1   
    10     7    23 ar  
    11     8     9 1   
    12     8    29 1   
    13     8    30 1   
    14     9    10 1   
    15     9    31 1   
    16    10    11 1   
    17    10    22 2   
    18    11    12 ar  
    19    11    16 ar  
    20    12    13 ar  
    21    12    32 1   
    22    13    14 ar  
    23    13    33 1   
    24    14    15 ar  
    25    15    16 ar  
    26    15    34 1   
    27    16    17 1   
    28    17    18 1   
    29    18    19 1   
    30    18    35 1   
    31    18    36 1   
    32    19    20 1   
    33    19    21 1   
    34    23    24 ar  
    35    23    37 1   
    36    24    25 ar  
    37    24    38 1   
    38    25    26 1   
    39    26    27 3   
@<TRIPOS>SUBSTRUCTURE
     1 3T4         1 TEMP              0 ****  ****    0 ROOT
