@<TRIPOS>MOLECULE
3T4
   38    39     1     0     0
SMALL
No Charge or Current Charge


@<TRIPOS>ATOM
      1 C1          -4.6500    -0.4190    -0.5270 ca         1 3T4      -0.147200
      2 Cl1          4.5650    -3.2580     2.2600 cl         1 3T4      -0.230000
      3 N2          -5.6060    -1.5670    -0.4790 no         1 3T4       0.696200
      4 O3          -5.1290    -2.7090    -0.4650 o          1 3T4      -0.394000
      5 O4          -6.8110    -1.3300    -0.6370 o          1 3T4      -0.394000
      6 C5          -3.4860    -0.5410    -1.3210 ca         1 3T4      -0.045000
      7 C6          -2.5580     0.5130    -1.4060 ca         1 3T4      -0.064300
      8 C7          -1.3090     0.3680    -2.2640 c3         1 3T4       0.150300
      9 N8          -0.2260    -0.2850    -1.5260 ns         1 3T4      -0.512900
     10 C9           0.7060     0.3730    -0.7520 c          1 3T4       0.641700
     11 C10          1.6820    -0.5180    -0.0170 ca         1 3T4      -0.218600
     12 C11          1.3140    -1.8460     0.3130 ca         1 3T4      -0.045000
     13 C12          2.1990    -2.6810     1.0100 ca         1 3T4      -0.184000
     14 C13          3.4590    -2.2080     1.3860 ca         1 3T4       0.178000
     15 C15          3.8440    -0.9010     1.0670 ca         1 3T4      -0.218000
     16 C16          2.9640    -0.0460     0.3650 ca         1 3T4       0.220100
     17 O17          3.3550     1.2330     0.0110 os         1 3T4      -0.281100
     18 C18          4.6520     1.7800     0.3560 c3         1 3T4      -0.003400
     19 C19          4.8720     3.2300    -0.1680 c          1 3T4       0.731000
     20 O20          4.0000     3.7730    -0.8350 o          1 3T4      -0.706500
     21 O21          5.9310     3.7750     0.1150 o          1 3T4      -0.706500
     22 O22          0.6810     1.5900    -0.6380 o          1 3T4      -0.571100
     23 C23         -2.7880     1.6970    -0.6850 ca         1 3T4      -0.061000
     24 C24         -3.9340     1.8270     0.1150 ca         1 3T4      -0.087000
     25 C25         -4.8720     0.7800     0.2060 ca         1 3T4       0.039000
     26 C26         -6.0090     0.9590     1.0770 cg         1 3T4       0.334000
     27 N27         -6.9200     1.1110     1.7920 n1         1 3T4      -0.433000
     28 H5          -3.3040    -1.4570    -1.8830 ha         1 3T4       0.156000
     29 H7          -1.5410    -0.2340    -3.1530 h1         1 3T4       0.068200
     30 H7A         -0.9760     1.3540    -2.6150 h1         1 3T4       0.068200
     31 HN8         -0.1350    -1.2900    -1.5890 hn         1 3T4       0.324500
     32 H11          0.3310    -2.2370     0.0590 ha         1 3T4       0.111000
     33 H12          1.9030    -3.6960     1.2640 ha         1 3T4       0.122000
     34 H15          4.8320    -0.5730     1.3700 ha         1 3T4       0.144000
     35 H18          4.7750     1.8010     1.4470 h1         1 3T4       0.023700
     36 H18A         5.4500     1.1570    -0.0670 h1         1 3T4       0.023700
     37 H23         -2.0730     2.5160    -0.7380 ha         1 3T4       0.136000
     38 H24         -4.0880     2.7480     0.6750 ha         1 3T4       0.133000
@<TRIPOS>BOND
     1     1     3 1   
     2     1     6 ar  
     3     1    25 ar  
     4     2    14 1   
     5     3     4 1   
     6     3     5 1   
     7     6     7 ar  
     8     6    28 1   
     9     7     8 1   
    10     7    23 ar  
    11     8     9 1   
    12     8    29 1   
    13     8    30 1   
    14     9    10 1   
    15     9    31 1   
    16    10    11 1   
    17    10    22 2   
    18    11    12 ar  
    19    11    16 ar  
    20    12    13 ar  
    21    12    32 1   
    22    13    14 ar  
    23    13    33 1   
    24    14    15 ar  
    25    15    16 ar  
    26    15    34 1   
    27    16    17 1   
    28    17    18 1   
    29    18    19 1   
    30    18    35 1   
    31    18    36 1   
    32    19    20 1   
    33    19    21 1   
    34    23    24 ar  
    35    23    37 1   
    36    24    25 ar  
    37    24    38 1   
    38    25    26 1   
    39    26    27 3   
@<TRIPOS>SUBSTRUCTURE
     1 3T4         1 TEMP              0 ****  ****    0 ROOT
