@<TRIPOS>MOLECULE
3T7
   63    67     1     0     0
SMALL
abcg2


@<TRIPOS>ATOM
      1 O01         -7.3630    -2.1080    -1.0190 o          1 3T7      -0.534000
      2 S02         -6.5860    -0.9070    -0.7890 sy         1 3T7       1.123200
      3 C03         -5.0410    -1.3590    -0.0670 cc         1 3T7       0.143300
      4 N04         -4.3620    -2.3900    -0.4110 nd         1 3T7      -0.163000
      5 N05         -3.2330    -2.5450     0.2820 nd         1 3T7      -0.420000
      6 C06         -3.0660    -1.6090     1.1900 cc         1 3T7       0.696300
      7 N07         -2.0350    -1.5630     2.0420 nh         1 3T7      -0.753300
      8 C08         -1.8480    -0.4420     2.9380 c3         1 3T7       0.203500
      9 C09         -1.0700     0.6820     2.3300 cc         1 3T7       0.149300
     10 C10         -1.0600     1.1570     1.0460 cd         1 3T7      -0.170000
     11 N11         -0.1600     2.1580     1.0780 na         1 3T7       0.230000
     12 C12          0.2680     2.9850     0.0130 ca         1 3T7      -0.003200
     13 C13          1.6090     3.3260    -0.0810 ca         1 3T7      -0.092500
     14 C14          2.0210     4.1460    -1.1200 ca         1 3T7      -0.104500
     15 C15          1.1080     4.6000    -2.0640 ca         1 3T7      -0.100000
     16 C16         -0.2290     4.2390    -1.9630 ca         1 3T7      -0.104500
     17 C17         -0.6580     3.4360    -0.9170 ca         1 3T7      -0.092500
     18 N18          0.3480     2.3000     2.2940 nd         1 3T7      -0.181800
     19 N19         -0.1940     1.4130     3.0500 nc         1 3T7      -0.356000
     20 C20         -0.9530    -2.5290     1.9280 c3         1 3T7       0.213500
     21 C21          0.2040    -2.0180     1.1370 cc         1 3T7       0.162300
     22 C22          1.5040    -1.8380     1.5200 cd         1 3T7      -0.164000
     23 N23          2.1130    -1.3800     0.4110 na         1 3T7       0.118800
     24 C24          3.5160    -1.1060     0.2190 c6         1 3T7       0.294300
     25 C25          4.0420    -1.7770    -1.0530 c6         1 3T7       0.103300
     26 C26          5.5240    -1.4480    -1.1670 c6         1 3T7       0.134300
     27 C27          5.7340     0.0610    -1.1210 c6         1 3T7       0.143300
     28 C28          5.0690     0.6380     0.1310 c6         1 3T7       0.175300
     29 C29          5.1540     2.1470     0.1630 c3         1 3T7       0.168600
     30 O30          4.6400     2.6110     1.3890 oh         1 3T7      -0.711000
     31 O31          3.6970     0.2750     0.1600 os         1 3T7      -0.436000
     32 O32          7.1000     0.3850    -1.0700 oh         1 3T7      -0.716000
     33 O33          6.0730    -1.9170    -2.3720 oh         1 3T7      -0.661000
     34 O34          3.9010    -3.1710    -0.9850 oh         1 3T7      -0.721000
     35 N35          1.2510    -1.2750    -0.5900 nd         1 3T7      -0.202800
     36 N36          0.1030    -1.6590    -0.1640 nc         1 3T7      -0.337000
     37 S37         -4.3470    -0.4290     1.2120 ss         1 3T7      -0.207800
     38 N38         -6.1410    -0.3420    -2.2570 n8         1 3T7      -1.028100
     39 O39         -7.0790     0.1390     0.0900 o          1 3T7      -0.534000
     40 H1          -2.8210    -0.0950     3.2990 h1         1 3T7       0.077700
     41 H2          -1.3210    -0.7960     3.8250 h1         1 3T7       0.077700
     42 H3          -1.5610     0.8530     0.1430 h4         1 3T7       0.183000
     43 H4           2.3200     2.9470     0.6400 ha         1 3T7       0.140500
     44 H5           3.0630     4.4240    -1.2000 ha         1 3T7       0.117500
     45 H6           1.4380     5.2330    -2.8770 ha         1 3T7       0.119000
     46 H7          -0.9450     4.5920    -2.6920 ha         1 3T7       0.117500
     47 H8          -1.7050     3.1770    -0.8240 ha         1 3T7       0.140500
     48 H9          -0.6240    -2.7840     2.9350 h1         1 3T7       0.080200
     49 H10         -1.3490    -3.4390     1.4790 h1         1 3T7       0.080200
     50 H11          2.0170    -2.0010     2.4530 h4         1 3T7       0.176000
     51 H12          4.0300    -1.5360     1.0900 h2         1 3T7       0.065700
     52 H13          3.5170    -1.3550    -1.9200 h1         1 3T7       0.086700
     53 H14          6.0420    -1.8880    -0.2990 h1         1 3T7       0.053700
     54 H15          5.2510     0.5070    -2.0060 h1         1 3T7       0.059700
     55 H16          5.5790     0.2280     1.0180 h1         1 3T7       0.066700
     56 H17          6.2020     2.4360     0.0340 h1         1 3T7       0.040700
     57 H18          4.5990     2.5510    -0.6940 h1         1 3T7       0.040700
     58 H19          4.7740     3.5620     1.4290 ho         1 3T7       0.509000
     59 H20          7.5290     0.0070    -1.8450 ho         1 3T7       0.530000
     60 H21          6.0760    -2.8790    -2.3540 ho         1 3T7       0.469000
     61 H22          3.0390    -3.4220    -1.3290 ho         1 3T7       0.530000
     62 H23         -6.8120    -0.5570    -2.9860 hn         1 3T7       0.486500
     63 H24         -5.8670     0.6340    -2.2650 hn         1 3T7       0.486500
@<TRIPOS>BOND
     1     1     2 2   
     2     2     3 1   
     3     2    38 1   
     4     2    39 2   
     5     3     4 2   
     6     3    37 1   
     7     4     5 1   
     8     5     6 2   
     9     6     7 1   
    10     6    37 1   
    11     7     8 1   
    12     7    20 1   
    13     8     9 1   
    14     8    40 1   
    15     8    41 1   
    16     9    10 2   
    17     9    19 1   
    18    10    11 1   
    19    10    42 1   
    20    11    12 1   
    21    11    18 1   
    22    12    13 ar  
    23    12    17 ar  
    24    13    14 ar  
    25    13    43 1   
    26    14    15 ar  
    27    14    44 1   
    28    15    16 ar  
    29    15    45 1   
    30    16    17 ar  
    31    16    46 1   
    32    17    47 1   
    33    18    19 2   
    34    20    21 1   
    35    20    48 1   
    36    20    49 1   
    37    21    22 2   
    38    21    36 1   
    39    22    23 1   
    40    22    50 1   
    41    23    24 1   
    42    23    35 1   
    43    24    25 1   
    44    24    31 1   
    45    24    51 1   
    46    25    26 1   
    47    25    34 1   
    48    25    52 1   
    49    26    27 1   
    50    26    33 1   
    51    26    53 1   
    52    27    28 1   
    53    27    32 1   
    54    27    54 1   
    55    28    29 1   
    56    28    31 1   
    57    28    55 1   
    58    29    30 1   
    59    29    56 1   
    60    29    57 1   
    61    30    58 1   
    62    32    59 1   
    63    33    60 1   
    64    34    61 1   
    65    35    36 2   
    66    38    62 1   
    67    38    63 1   
@<TRIPOS>SUBSTRUCTURE
     1 3T7         1 TEMP              0 ****  ****    0 ROOT
