@<TRIPOS>MOLECULE
3T7
   63    67     1     0     0
SMALL
No Charge or Current Charge


@<TRIPOS>ATOM
      1 O01         -7.2360    -1.7000    -1.1940 o          1 3T7      -0.534000
      2 S02         -6.4690    -0.5320    -0.7600 sy         1 3T7       1.123200
      3 C03         -4.9920    -1.0350     0.1840 cc         1 3T7       0.143300
      4 N04         -4.4940    -2.2650     0.1570 nd         1 3T7      -0.163000
      5 N05         -3.3680    -2.3880     0.9510 nd         1 3T7      -0.420000
      6 C06         -3.0470    -1.2500     1.5480 cc         1 3T7       0.696300
      7 N07         -1.9530    -1.1160     2.3880 nh         1 3T7      -0.753300
      8 C08         -1.6180     0.1860     3.0260 c3         1 3T7       0.203500
      9 C09         -0.9450     1.1990     2.1240 cc         1 3T7       0.149300
     10 C10         -0.5520     1.0380     0.8270 cd         1 3T7      -0.170000
     11 N11         -0.0130     2.2640     0.5440 na         1 3T7       0.230000
     12 C12          0.6380     2.4320    -0.6820 ca         1 3T7      -0.003200
     13 C13          1.9210     3.0160    -0.7250 ca         1 3T7      -0.092500
     14 C14          2.5800     3.1930    -1.9540 ca         1 3T7      -0.104500
     15 C15          1.9650     2.7830    -3.1480 ca         1 3T7      -0.100000
     16 C16          0.6860     2.2040    -3.1150 ca         1 3T7      -0.104500
     17 C17          0.0220     2.0320    -1.8880 ca         1 3T7      -0.092500
     18 N18         -0.0250     3.1120     1.6130 nd         1 3T7      -0.181800
     19 N19         -0.6280     2.4570     2.5770 nc         1 3T7      -0.356000
     20 C20         -0.9710    -2.2220     2.5670 c3         1 3T7       0.213500
     21 C21          0.1730    -2.2200     1.5750 cc         1 3T7       0.162300
     22 C22          1.3080    -1.4700     1.6150 cd         1 3T7      -0.164000
     23 N23          1.9750    -1.8370     0.4660 na         1 3T7       0.118800
     24 C24          3.3050    -1.3420     0.0110 c6         1 3T7       0.294300
     25 C25          3.2450    -0.6520    -1.3990 c6         1 3T7       0.103300
     26 C26          4.6630    -0.1130    -1.7420 c6         1 3T7       0.134300
     27 C27          5.1840     0.8370    -0.6270 c6         1 3T7       0.143300
     28 C28          5.1460     0.0890     0.7400 c6         1 3T7       0.175300
     29 C29          5.5670     1.0060     1.9350 c3         1 3T7       0.168600
     30 O30          5.4790     0.3490     3.2170 oh         1 3T7      -0.711000
     31 O31          3.8010    -0.3940     0.9910 os         1 3T7      -0.436000
     32 O32          6.5070     1.2940    -0.9650 oh         1 3T7      -0.716000
     33 O33          4.6460     0.5520    -3.0150 oh         1 3T7      -0.661000
     34 O34          2.8130    -1.5390    -2.4640 oh         1 3T7      -0.721000
     35 N35          1.2640    -2.7960    -0.2140 nd         1 3T7      -0.202800
     36 N36          0.1630    -3.0130     0.4610 nc         1 3T7      -0.337000
     37 S37         -4.1060     0.0830     1.1930 ss         1 3T7      -0.207800
     38 N38         -5.8820     0.0800    -2.1680 n8         1 3T7      -1.028100
     39 O39         -7.1100     0.6270    -0.1390 o          1 3T7      -0.534000
     40 H1          -2.5260     0.6450     3.4390 h1         1 3T7       0.077700
     41 H2          -0.9540     0.0200     3.8850 h1         1 3T7       0.077700
     42 H3          -0.6060     0.2010     0.1440 h4         1 3T7       0.183000
     43 H4           2.4090     3.3340     0.1950 ha         1 3T7       0.140500
     44 H5           3.5700     3.6440    -1.9810 ha         1 3T7       0.117500
     45 H6           2.4780     2.9170    -4.0980 ha         1 3T7       0.119000
     46 H7           0.2080     1.8920    -4.0410 ha         1 3T7       0.117500
     47 H8          -0.9740     1.5940    -1.8790 ha         1 3T7       0.140500
     48 H9          -0.5380    -2.1750     3.5750 h1         1 3T7       0.080200
     49 H10         -1.4740    -3.1970     2.5120 h1         1 3T7       0.080200
     50 H11          1.6640    -0.7370     2.3270 h4         1 3T7       0.176000
     51 H12          3.9640    -2.2220    -0.0240 h2         1 3T7       0.065700
     52 H13          2.5570     0.2050    -1.3200 h1         1 3T7       0.086700
     53 H14          5.3430    -0.9780    -1.7940 h1         1 3T7       0.053700
     54 H15          4.5020     1.6980    -0.5600 h1         1 3T7       0.059700
     55 H16          5.8320    -0.7700     0.7080 h1         1 3T7       0.066700
     56 H17          6.5970     1.3460     1.7590 h1         1 3T7       0.040700
     57 H18          4.9240     1.8960     1.9220 h1         1 3T7       0.040700
     58 H19          5.7140     1.0180     3.9010 ho         1 3T7       0.509000
     59 H20          6.4800     1.4360    -1.9430 ho         1 3T7       0.530000
     60 H21          4.0210     0.0180    -3.5600 ho         1 3T7       0.469000
     61 H22          1.9690    -1.9660    -2.1760 ho         1 3T7       0.530000
     62 H23         -6.4150    -0.4630    -2.8440 hn         1 3T7       0.486500
     63 H24         -6.3610     0.9780    -2.1930 hn         1 3T7       0.486500
@<TRIPOS>BOND
     1     1     2 2   
     2     2     3 1   
     3     2    38 1   
     4     2    39 2   
     5     3     4 2   
     6     3    37 1   
     7     4     5 1   
     8     5     6 2   
     9     6     7 1   
    10     6    37 1   
    11     7     8 1   
    12     7    20 1   
    13     8     9 1   
    14     8    40 1   
    15     8    41 1   
    16     9    10 2   
    17     9    19 1   
    18    10    11 1   
    19    10    42 1   
    20    11    12 1   
    21    11    18 1   
    22    12    13 ar  
    23    12    17 ar  
    24    13    14 ar  
    25    13    43 1   
    26    14    15 ar  
    27    14    44 1   
    28    15    16 ar  
    29    15    45 1   
    30    16    17 ar  
    31    16    46 1   
    32    17    47 1   
    33    18    19 2   
    34    20    21 1   
    35    20    48 1   
    36    20    49 1   
    37    21    22 2   
    38    21    36 1   
    39    22    23 1   
    40    22    50 1   
    41    23    24 1   
    42    23    35 1   
    43    24    25 1   
    44    24    31 1   
    45    24    51 1   
    46    25    26 1   
    47    25    34 1   
    48    25    52 1   
    49    26    27 1   
    50    26    33 1   
    51    26    53 1   
    52    27    28 1   
    53    27    32 1   
    54    27    54 1   
    55    28    29 1   
    56    28    31 1   
    57    28    55 1   
    58    29    30 1   
    59    29    56 1   
    60    29    57 1   
    61    30    58 1   
    62    32    59 1   
    63    33    60 1   
    64    34    61 1   
    65    35    36 2   
    66    38    62 1   
    67    38    63 1   
@<TRIPOS>SUBSTRUCTURE
     1 3T7         1 TEMP              0 ****  ****    0 ROOT
