@<TRIPOS>MOLECULE
3T9
   39    42     1     0     0
SMALL
abcg2


@<TRIPOS>ATOM
      1 N1           2.6580     1.8500     0.4610 na         1 3T9       0.022500
      2 C2           1.7260    -0.0640     0.0710 ca         1 3T9      -0.182000
      3 C3           0.7720     0.9590     0.3180 ca         1 3T9       0.238000
      4 C4           2.9640     0.5760     0.1750 cc         1 3T9      -0.022300
      5 N5           1.3640     2.1290     0.5530 nc         1 3T9      -0.257400
      6 N6          -0.5580     0.7740     0.3320 nb         1 3T9      -0.647000
      7 C7          -0.9850    -0.4470     0.1110 cp         1 3T9       0.447500
      8 C8           1.2500    -1.3660    -0.1630 ca         1 3T9      -0.014000
      9 C9          -2.4460    -0.6610     0.1230 cp         1 3T9      -0.160500
     10 C10         -3.3030     0.4190    -0.1230 ca         1 3T9      -0.110000
     11 C11         -4.6740     0.2520    -0.1080 ca         1 3T9       0.036100
     12 C12         -5.2260    -1.0120     0.1720 ca         1 3T9       0.134100
     13 C13          4.3310     0.0860     0.0520 ca         1 3T9      -0.040800
     14 C14         -0.1030    -1.5460    -0.1440 ca         1 3T9      -0.182000
     15 C15         -3.0020    -1.9060     0.3970 ca         1 3T9      -0.085000
     16 C16         -4.3800    -2.0760     0.4260 ca         1 3T9      -0.137000
     17 O17         -5.5830     1.2200    -0.3470 os         1 3T9      -0.371100
     18 O18         -6.5570    -1.2040     0.1980 oh         1 3T9      -0.533100
     19 C19          5.3620     0.6320     0.8200 ca         1 3T9      -0.094500
     20 C20          4.6260    -0.9480    -0.8380 ca         1 3T9      -0.094500
     21 C21         -5.1220     2.5120    -0.6910 c3         1 3T9       0.155900
     22 C22          5.9220    -1.4280    -0.9520 ca         1 3T9      -0.107000
     23 C23          6.6570     0.1550     0.6970 ca         1 3T9      -0.107000
     24 C24          6.9420    -0.8780    -0.1870 ca         1 3T9      -0.098000
     25 H8           1.9140    -2.1980    -0.3550 ha         1 3T9       0.120000
     26 H10         -2.8700     1.3880    -0.3320 ha         1 3T9       0.141000
     27 H14         -0.5120    -2.5250    -0.3460 ha         1 3T9       0.123000
     28 H15         -2.3750    -2.7590     0.6180 ha         1 3T9       0.116000
     29 H16         -4.8030    -3.0470     0.6510 ha         1 3T9       0.131000
     30 HO18        -7.0170    -0.3830    -0.0190 ho         1 3T9       0.483000
     31 H19          5.1540     1.4190     1.5350 ha         1 3T9       0.116000
     32 H20          3.8480    -1.3660    -1.4640 ha         1 3T9       0.116000
     33 H21         -4.5240     2.4970    -1.6050 h1         1 3T9       0.044033
     34 H21A        -6.0050     3.1220    -0.8580 h1         1 3T9       0.044033
     35 H21B        -4.5290     2.9570     0.1130 h1         1 3T9       0.044033
     36 H22          6.1340    -2.2300    -1.6480 ha         1 3T9       0.118000
     37 H23          7.4440     0.5840     1.3030 ha         1 3T9       0.118000
     38 H24          7.9520    -1.2540    -0.2760 ha         1 3T9       0.118000
     39 HN1          3.3230     2.6000     0.5830 hn         1 3T9       0.375000
@<TRIPOS>BOND
     1     1     4 1   
     2     1     5 1   
     3     1    39 1   
     4     2     3 ar  
     5     2     4 2   
     6     2     8 ar  
     7     3     5 2   
     8     3     6 ar  
     9     4    13 1   
    10     6     7 ar  
    11     7     9 1   
    12     7    14 ar  
    13     8    14 ar  
    14     8    25 1   
    15     9    10 ar  
    16     9    15 ar  
    17    10    11 ar  
    18    10    26 1   
    19    11    12 ar  
    20    11    17 1   
    21    12    16 ar  
    22    12    18 1   
    23    13    19 ar  
    24    13    20 ar  
    25    14    27 1   
    26    15    16 ar  
    27    15    28 1   
    28    16    29 1   
    29    17    21 1   
    30    18    30 1   
    31    19    23 ar  
    32    19    31 1   
    33    20    22 ar  
    34    20    32 1   
    35    21    33 1   
    36    21    34 1   
    37    21    35 1   
    38    22    24 ar  
    39    22    36 1   
    40    23    24 ar  
    41    23    37 1   
    42    24    38 1   
@<TRIPOS>SUBSTRUCTURE
     1 3T9         1 TEMP              0 ****  ****    0 ROOT
