@<TRIPOS>MOLECULE
3T9
   39    42     1     0     0
SMALL
No Charge or Current Charge


@<TRIPOS>ATOM
      1 N1           2.7710     2.0430     0.5410 na         1 3T9       0.022500
      2 C2           1.7280     0.0870     0.1640 ca         1 3T9      -0.182000
      3 C3           0.7970     1.0850     0.3840 ca         1 3T9       0.238000
      4 C4           3.0060     0.7100     0.2480 cc         1 3T9      -0.022300
      5 N5           1.4020     2.3270     0.6180 nc         1 3T9      -0.257400
      6 N6          -0.5230     0.8250     0.3690 nb         1 3T9      -0.647000
      7 C7          -0.9480    -0.4490     0.1540 cp         1 3T9       0.447500
      8 C8           1.3580    -1.2460    -0.0430 ca         1 3T9      -0.014000
      9 C9          -2.4400    -0.6730     0.1490 cp         1 3T9      -0.160500
     10 C10         -3.3460     0.3840    -0.1540 ca         1 3T9      -0.110000
     11 C11         -4.7440     0.1760    -0.1610 ca         1 3T9       0.036100
     12 C12         -5.2540    -1.1010     0.1400 ca         1 3T9       0.134100
     13 C13          4.3310     0.1090     0.0720 ca         1 3T9      -0.040800
     14 C14         -0.0210    -1.5090    -0.0530 ca         1 3T9      -0.182000
     15 C15         -2.9960    -1.9460     0.4520 ca         1 3T9      -0.085000
     16 C16         -4.3850    -2.1560     0.4460 ca         1 3T9      -0.137000
     17 O17         -5.6480     1.1850    -0.4560 os         1 3T9      -0.371100
     18 O18         -6.6030    -1.3090     0.1350 oh         1 3T9      -0.533100
     19 C19          5.4200     0.5500     0.8530 ca         1 3T9      -0.094500
     20 C20          4.5470    -0.8950    -0.8950 ca         1 3T9      -0.094500
     21 C21         -5.2300     2.5270    -0.7740 c3         1 3T9       0.155900
     22 C22          5.8230    -1.4600    -1.0650 ca         1 3T9      -0.107000
     23 C23          6.6960    -0.0160     0.6840 ca         1 3T9      -0.107000
     24 C24          6.8980    -1.0230    -0.2730 ca         1 3T9      -0.098000
     25 H8           2.0860    -2.0410    -0.1820 ha         1 3T9       0.120000
     26 H10         -2.9430     1.3650    -0.3910 ha         1 3T9       0.141000
     27 H14         -0.3680    -2.5200    -0.2340 ha         1 3T9       0.123000
     28 H15         -2.3510    -2.7820     0.7130 ha         1 3T9       0.116000
     29 H16         -4.7870    -3.1370     0.6840 ha         1 3T9       0.131000
     30 HO18        -7.0120    -0.4460    -0.1010 ho         1 3T9       0.483000
     31 H19          5.2790     1.3230     1.6050 ha         1 3T9       0.116000
     32 H20          3.7340    -1.2240    -1.5360 ha         1 3T9       0.116000
     33 H21         -4.5950     2.5360    -1.6690 h1         1 3T9       0.044033
     34 H21A        -6.1030     3.1610    -0.9710 h1         1 3T9       0.044033
     35 H21B        -4.6710     2.9690     0.0600 h1         1 3T9       0.044033
     36 H22          5.9800    -2.2330    -1.8150 ha         1 3T9       0.118000
     37 H23          7.5270     0.3260     1.2960 ha         1 3T9       0.118000
     38 H24          7.8850    -1.4610    -0.4050 ha         1 3T9       0.118000
     39 HN1          3.4670     2.7700     0.6650 hn         1 3T9       0.375000
@<TRIPOS>BOND
     1     1     4 1   
     2     1     5 1   
     3     1    39 1   
     4     2     3 ar  
     5     2     4 2   
     6     2     8 ar  
     7     3     5 2   
     8     3     6 ar  
     9     4    13 1   
    10     6     7 ar  
    11     7     9 1   
    12     7    14 ar  
    13     8    14 ar  
    14     8    25 1   
    15     9    10 ar  
    16     9    15 ar  
    17    10    11 ar  
    18    10    26 1   
    19    11    12 ar  
    20    11    17 1   
    21    12    16 ar  
    22    12    18 1   
    23    13    19 ar  
    24    13    20 ar  
    25    14    27 1   
    26    15    16 ar  
    27    15    28 1   
    28    16    29 1   
    29    17    21 1   
    30    18    30 1   
    31    19    23 ar  
    32    19    31 1   
    33    20    22 ar  
    34    20    32 1   
    35    21    33 1   
    36    21    34 1   
    37    21    35 1   
    38    22    24 ar  
    39    22    36 1   
    40    23    24 ar  
    41    23    37 1   
    42    24    38 1   
@<TRIPOS>SUBSTRUCTURE
     1 3T9         1 TEMP              0 ****  ****    0 ROOT
