@<TRIPOS>MOLECULE
3TA
   56    59     1     0     0
SMALL
abcg2


@<TRIPOS>ATOM
      1 C1           1.8440     0.6670     1.4960 ca         1 3TA      -0.244300
      2 CL1          7.6390    -0.9210    -1.7990 cl         1 3TA      -0.179000
      3 C2           0.5160     0.6860     1.8910 ca         1 3TA       0.171900
      4 N3          -0.4020    -0.1260     1.3970 nb         1 3TA      -0.221000
      5 C4           0.0130    -0.9930     0.4760 ca         1 3TA       0.393900
      6 N5           1.2560    -1.0880     0.0070 nb         1 3TA      -0.249000
      7 C6           2.1620    -0.2590     0.5040 cp         1 3TA       0.228500
      8 C7           4.3670     0.7250    -0.2300 ca         1 3TA       0.066600
      9 C8           3.5320    -0.3810    -0.0170 cp         1 3TA      -0.168500
     10 N9           3.9760     2.0540     0.0020 ns         1 3TA      -0.314100
     11 C10          3.3110     2.5640     1.0440 cs         1 3TA       0.383400
     12 C11          2.8790     1.5720     2.0840 c3         1 3TA      -0.063100
     13 C12          5.2660    -1.8330    -0.9000 ca         1 3TA      -0.119000
     14 C13          6.0660    -0.7200    -1.1180 ca         1 3TA       0.152000
     15 C14          5.6300     0.5480    -0.7920 ca         1 3TA      -0.142000
     16 C15          4.0090    -1.6460    -0.3630 ca         1 3TA      -0.041000
     17 S16          2.9810     4.1790     1.1550 s          1 3TA      -0.522400
     18 N18         -0.8700    -1.8830    -0.0500 nu         1 3TA      -0.929900
     19 C19         -2.2320    -2.0160     0.2170 ca         1 3TA       0.255000
     20 C20         -3.0700    -0.9320     0.4440 ca         1 3TA      -0.077000
     21 C21         -4.4220    -1.1420     0.6820 ca         1 3TA      -0.110300
     22 C22         -4.8720    -2.4540     0.6650 ca         1 3TA       0.325900
     23 N23         -4.0850    -3.4960     0.4280 nb         1 3TA      -0.657000
     24 C24         -2.7920    -3.3060     0.2100 ca         1 3TA       0.320300
     25 C25         -5.3660     0.0080     0.8820 c3         1 3TA      -0.029100
     26 C26         -5.8390     0.5900    -0.4510 c3         1 3TA      -0.077400
     27 C27         -6.7660     1.7800    -0.2450 c3         1 3TA       0.165800
     28 N28         -7.1530     2.4350    -1.4810 n3         1 3TA      -0.712600
     29 C29         -8.0160     1.6090    -2.2990 c3         1 3TA       0.150100
     30 C30         -7.7760     3.7140    -1.2170 c3         1 3TA       0.150100
     31 C31         -1.9440    -4.5150    -0.0470 c3         1 3TA      -0.149400
     32 H2           0.1850     1.3840     2.6540 h4         1 3TA       0.034100
     33 HN9          4.3270     2.7310    -0.6640 hn         1 3TA       0.345500
     34 H11          2.4790     2.1050     2.9430 hc         1 3TA       0.084700
     35 H11A         3.7470     0.9960     2.4220 hc         1 3TA       0.084700
     36 H12          5.6140    -2.8250    -1.1500 ha         1 3TA       0.140000
     37 H14          6.2630     1.4090    -0.9680 ha         1 3TA       0.139000
     38 H15          3.3690    -2.5040    -0.2060 ha         1 3TA       0.140000
     39 HN18        -0.4470    -2.5670    -0.6580 hn         1 3TA       0.516000
     40 H20         -2.6780     0.0760     0.4350 ha         1 3TA       0.142000
     41 H22         -5.9190    -2.6720     0.8530 h4         1 3TA       0.020100
     42 H25         -6.2310    -0.3250     1.4620 hc         1 3TA       0.050700
     43 H25A        -4.8760     0.7890     1.4680 hc         1 3TA       0.050700
     44 H26         -4.9750     0.9080    -1.0420 hc         1 3TA       0.051200
     45 H26A        -6.3360    -0.1990    -1.0210 hc         1 3TA       0.051200
     46 H27         -7.6490     1.4600     0.3390 h1         1 3TA       0.028700
     47 H27A        -6.2420     2.5150     0.3730 h1         1 3TA       0.028700
     48 H29         -8.9610     1.3460    -1.7970 h1         1 3TA       0.030200
     49 H29A        -8.2650     2.1360    -3.2210 h1         1 3TA       0.030200
     50 H29B        -7.5210     0.6800    -2.5790 h1         1 3TA       0.030200
     51 H30         -7.0890     4.3640    -0.6720 h1         1 3TA       0.030200
     52 H30A        -8.0260     4.2080    -2.1580 h1         1 3TA       0.030200
     53 H30B        -8.7030     3.6360    -0.6270 h1         1 3TA       0.030200
     54 H31         -1.5430    -4.5250    -1.0640 hc         1 3TA       0.051700
     55 H31A        -1.0920    -4.5630     0.6340 hc         1 3TA       0.051700
     56 H31B        -2.5370    -5.4180     0.0810 hc         1 3TA       0.051700
@<TRIPOS>BOND
     1     1     3 ar  
     2     1     7 ar  
     3     1    12 1   
     4     2    14 1   
     5     3     4 ar  
     6     3    32 1   
     7     4     5 ar  
     8     5     6 ar  
     9     5    18 1   
    10     6     7 ar  
    11     7     9 1   
    12     8     9 ar  
    13     8    10 1   
    14     8    15 ar  
    15     9    16 ar  
    16    10    11 1   
    17    10    33 1   
    18    11    12 1   
    19    11    17 2   
    20    12    34 1   
    21    12    35 1   
    22    13    14 ar  
    23    13    16 ar  
    24    13    36 1   
    25    14    15 ar  
    26    15    37 1   
    27    16    38 1   
    28    18    19 1   
    29    18    39 1   
    30    19    20 ar  
    31    19    24 ar  
    32    20    21 ar  
    33    20    40 1   
    34    21    22 ar  
    35    21    25 1   
    36    22    23 ar  
    37    22    41 1   
    38    23    24 ar  
    39    24    31 1   
    40    25    26 1   
    41    25    42 1   
    42    25    43 1   
    43    26    27 1   
    44    26    44 1   
    45    26    45 1   
    46    27    28 1   
    47    27    46 1   
    48    27    47 1   
    49    28    29 1   
    50    28    30 1   
    51    29    48 1   
    52    29    49 1   
    53    29    50 1   
    54    30    51 1   
    55    30    52 1   
    56    30    53 1   
    57    31    54 1   
    58    31    55 1   
    59    31    56 1   
@<TRIPOS>SUBSTRUCTURE
     1 3TA         1 TEMP              0 ****  ****    0 ROOT
