@<TRIPOS>MOLECULE
3TA
   56    59     1     0     0
SMALL
No Charge or Current Charge


@<TRIPOS>ATOM
      1 C1           1.8250     0.7920     1.4770 ca         1 3TA      -0.244300
      2 Cl1          7.7090    -1.0160    -1.9260 cl         1 3TA      -0.179000
      3 C2           0.5010     0.8070     1.9540 ca         1 3TA       0.171900
      4 N3          -0.4150    -0.0790     1.5250 nb         1 3TA      -0.221000
      5 C4           0.0020    -0.9720     0.6110 ca         1 3TA       0.393900
      6 N5           1.2400    -1.0760     0.1060 nb         1 3TA      -0.249000
      7 C6           2.1690    -0.1870     0.5140 cp         1 3TA       0.228500
      8 C7           4.4280     0.7570    -0.3350 ca         1 3TA       0.066600
      9 C8           3.5530    -0.3400    -0.0560 cp         1 3TA      -0.168500
     10 N9           4.0460     2.1030    -0.1150 ns         1 3TA      -0.314100
     11 C10          3.3340     2.7190     0.8770 cs         1 3TA       0.383400
     12 C11          2.8370     1.8070     1.9770 c3         1 3TA      -0.063100
     13 C12          5.2970    -1.8530    -0.9300 ca         1 3TA      -0.119000
     14 C13          6.1240    -0.7600    -1.2090 ca         1 3TA       0.152000
     15 C14          5.6880     0.5390    -0.9200 ca         1 3TA      -0.142000
     16 C15          4.0280    -1.6460    -0.3670 ca         1 3TA      -0.041000
     17 S16          3.0500     4.3690     0.8690 s          1 3TA      -0.522400
     18 N18         -0.8910    -1.9360     0.1620 nu         1 3TA      -0.929900
     19 C19         -2.2830    -2.1560     0.3300 ca         1 3TA       0.255000
     20 C20         -3.1700    -1.0810     0.5420 ca         1 3TA      -0.077000
     21 C21         -4.5480    -1.3340     0.6890 ca         1 3TA      -0.110300
     22 C22         -5.0050    -2.6650     0.6120 ca         1 3TA       0.325900
     23 N23         -4.1840    -3.7160     0.3940 nb         1 3TA      -0.657000
     24 C24         -2.8570    -3.4660     0.2530 ca         1 3TA       0.320300
     25 C25         -5.5240    -0.1870     0.9170 c3         1 3TA      -0.029100
     26 C26         -5.8410     0.5750    -0.3870 c3         1 3TA      -0.077400
     27 C27         -6.8390     1.7380    -0.1760 c3         1 3TA       0.165800
     28 N28         -7.0630     2.5940    -1.3680 n3         1 3TA      -0.712600
     29 C29         -7.6470     1.8740    -2.5250 c3         1 3TA       0.150100
     30 C30         -7.8310     3.8160    -1.0380 c3         1 3TA       0.150100
     31 C31         -1.9930    -4.6990     0.0090 c3         1 3TA      -0.149400
     32 H2           0.1660     1.5350     2.6920 h4         1 3TA       0.034100
     33 HN9          4.3970     2.7460    -0.8160 hn         1 3TA       0.345500
     34 H11          2.4050     2.4190     2.7780 hc         1 3TA       0.084700
     35 H11A         3.6930     1.2930     2.4300 hc         1 3TA       0.084700
     36 H12          5.6360    -2.8610    -1.1550 ha         1 3TA       0.140000
     37 H14          6.3390     1.3790    -1.1460 ha         1 3TA       0.139000
     38 H15          3.4070    -2.5160    -0.1650 ha         1 3TA       0.140000
     39 HN18        -0.4110    -2.6910    -0.3300 hn         1 3TA       0.516000
     40 H20         -2.8060    -0.0590     0.5710 ha         1 3TA       0.142000
     41 H22         -6.0640    -2.8970     0.7180 h4         1 3TA       0.020100
     42 H25         -6.4600    -0.5650     1.3490 hc         1 3TA       0.050700
     43 H25A        -5.1090     0.5130     1.6530 hc         1 3TA       0.050700
     44 H26         -4.9110     0.9750    -0.8070 hc         1 3TA       0.051200
     45 H26A        -6.2480    -0.1350    -1.1160 hc         1 3TA       0.051200
     46 H27         -7.7960     1.3220     0.1700 h1         1 3TA       0.028700
     47 H27A        -6.4490     2.3610     0.6410 h1         1 3TA       0.028700
     48 H29         -8.6200     1.4360    -2.2640 h1         1 3TA       0.030200
     49 H29A        -7.7960     2.5580    -3.3710 h1         1 3TA       0.030200
     50 H29B        -6.9850     1.0690    -2.8690 h1         1 3TA       0.030200
     51 H30         -7.3360     4.3820    -0.2370 h1         1 3TA       0.030200
     52 H30A        -7.9120     4.4730    -1.9140 h1         1 3TA       0.030200
     53 H30B        -8.8460     3.5620    -0.7030 h1         1 3TA       0.030200
     54 H31         -1.5350    -4.6630    -0.9870 hc         1 3TA       0.051700
     55 H31A        -1.1900    -4.7670     0.7510 hc         1 3TA       0.051700
     56 H31B        -2.5750    -5.6270     0.0700 hc         1 3TA       0.051700
@<TRIPOS>BOND
     1     1     3 ar  
     2     1     7 ar  
     3     1    12 1   
     4     2    14 1   
     5     3     4 ar  
     6     3    32 1   
     7     4     5 ar  
     8     5     6 ar  
     9     5    18 1   
    10     6     7 ar  
    11     7     9 1   
    12     8     9 ar  
    13     8    10 1   
    14     8    15 ar  
    15     9    16 ar  
    16    10    11 1   
    17    10    33 1   
    18    11    12 1   
    19    11    17 2   
    20    12    34 1   
    21    12    35 1   
    22    13    14 ar  
    23    13    16 ar  
    24    13    36 1   
    25    14    15 ar  
    26    15    37 1   
    27    16    38 1   
    28    18    19 1   
    29    18    39 1   
    30    19    20 ar  
    31    19    24 ar  
    32    20    21 ar  
    33    20    40 1   
    34    21    22 ar  
    35    21    25 1   
    36    22    23 ar  
    37    22    41 1   
    38    23    24 ar  
    39    24    31 1   
    40    25    26 1   
    41    25    42 1   
    42    25    43 1   
    43    26    27 1   
    44    26    44 1   
    45    26    45 1   
    46    27    28 1   
    47    27    46 1   
    48    27    47 1   
    49    28    29 1   
    50    28    30 1   
    51    29    48 1   
    52    29    49 1   
    53    29    50 1   
    54    30    51 1   
    55    30    52 1   
    56    30    53 1   
    57    31    54 1   
    58    31    55 1   
    59    31    56 1   
@<TRIPOS>SUBSTRUCTURE
     1 3TA         1 TEMP              0 ****  ****    0 ROOT
