@<TRIPOS>MOLECULE
3TC
   26    27     1     0     0
SMALL
No Charge or Current Charge


@<TRIPOS>ATOM
      1 O1           3.5930    -2.1860    -0.9580 o          1 3TC      -0.542000
      2 C1           3.5650    -1.3270    -0.0920 c          1 3TC       0.723400
      3 N2           4.7110    -0.6400     0.2080 nc         1 3TC      -0.771100
      4 C3           4.6970     0.2820     1.1110 cd         1 3TC       0.789500
      5 N3           5.8520     0.8830     1.3140 nv         1 3TC      -1.029200
      6 C5           3.5550     0.6710     1.8380 cd         1 3TC      -0.479600
      7 C7           2.3830     0.0050     1.5700 cc         1 3TC       0.028600
      8 N1           2.3870    -1.0050     0.6100 n          1 3TC      -0.316000
      9 C4           1.1280    -1.7030     0.2450 c5         1 3TC       0.317700
     10 C6           0.1490    -0.6760    -0.3990 c5         1 3TC       0.011600
     11 O2           0.4690    -2.2130     1.4200 os         1 3TC      -0.466000
     12 C2          -0.8290    -2.6950     1.0160 c5         1 3TC       0.286300
     13 S1          -1.5540    -1.3510    -0.0500 ss         1 3TC      -0.444000
     14 C8          -1.6910    -3.0100     2.2770 c3         1 3TC       0.168600
     15 O3          -1.8750    -1.8440     3.1100 oh         1 3TC      -0.696000
     16 HN31         5.7930     1.8290     1.6650 hn         1 3TC       0.504000
     17 HN32         6.5240     0.7290     0.5760 hn         1 3TC       0.504000
     18 H5           3.6060     1.4550     2.5840 ha         1 3TC       0.204000
     19 H7           1.4190     0.1660     2.0500 h4         1 3TC       0.207000
     20 H4           1.3490    -2.5250    -0.4490 h2         1 3TC       0.115700
     21 H61          0.2370     0.3240     0.0440 h1         1 3TC       0.089200
     22 H62          0.3180    -0.5820    -1.4800 h1         1 3TC       0.089200
     23 H2          -0.7140    -3.6040     0.4120 h2         1 3TC       0.078700
     24 H81         -1.1920    -3.8100     2.8410 h1         1 3TC       0.060200
     25 H82         -2.6620    -3.4010     1.9460 h1         1 3TC       0.060200
     26 HO3         -1.0200    -1.3560     3.0710 ho         1 3TC       0.504000
@<TRIPOS>BOND
     1     1     2 2   
     2     2     3 1   
     3     2     8 1   
     4     3     4 2   
     5     4     5 1   
     6     4     6 1   
     7     5    16 1   
     8     5    17 1   
     9     6     7 2   
    10     6    18 1   
    11     7     8 1   
    12     7    19 1   
    13     8     9 1   
    14     9    10 1   
    15     9    11 1   
    16     9    20 1   
    17    10    13 1   
    18    10    21 1   
    19    10    22 1   
    20    11    12 1   
    21    12    13 1   
    22    12    14 1   
    23    12    23 1   
    24    14    15 1   
    25    14    24 1   
    26    14    25 1   
    27    15    26 1   
@<TRIPOS>SUBSTRUCTURE
     1 3TC         1 TEMP              0 ****  ****    0 ROOT
