@<TRIPOS>MOLECULE
3TC
   26    27     1     0     0
SMALL
bcc


@<TRIPOS>ATOM
      1 O1           3.5090    -2.1270    -1.1250 o          1 3TC      -0.617500
      2 C1           3.5170    -1.2910    -0.2320 c          1 3TC       0.865900
      3 N2           4.6330    -0.6360     0.1420 nc         1 3TC      -0.771100
      4 C3           4.6120     0.2600     1.1090 cd         1 3TC       0.789500
      5 N3           5.7490     0.8690     1.4310 nv         1 3TC      -0.918800
      6 C5           3.4120     0.5920     1.8140 cd         1 3TC      -0.429600
      7 C7           2.2980    -0.0590     1.4370 cc         1 3TC       0.078600
      8 N1           2.3160    -0.9800     0.4370 n          1 3TC      -0.383000
      9 C4           1.0940    -1.6600     0.0850 c5         1 3TC       0.294500
     10 C6           0.0130    -0.7280    -0.4590 c5         1 3TC      -0.036300
     11 O2           0.5770    -2.2500     1.2540 os         1 3TC      -0.419600
     12 C2          -0.7040    -2.7660     1.0350 c5         1 3TC       0.215200
     13 S1          -1.5120    -1.6670    -0.2200 ss         1 3TC      -0.348200
     14 C8          -1.4620    -2.8080     2.3460 c3         1 3TC       0.145400
     15 O3          -1.6370    -1.5500     2.9340 oh         1 3TC      -0.573800
     16 HN31         5.7880     1.5670     2.1530 hn         1 3TC       0.448800
     17 HN32         6.5970     0.6540     0.9340 hn         1 3TC       0.448800
     18 H5           3.3920     1.3210     2.6100 ha         1 3TC       0.154000
     19 H7           1.3480     0.1220     1.9200 h4         1 3TC       0.157000
     20 H4           1.3370    -2.4160    -0.6620 h2         1 3TC       0.115700
     21 H61         -0.0230     0.2210     0.0780 h1         1 3TC       0.089200
     22 H62          0.1730    -0.5270    -1.5170 h1         1 3TC       0.089200
     23 H2          -0.6580    -3.7730     0.6080 h2         1 3TC       0.078700
     24 H81         -0.9440    -3.5100     3.0140 h1         1 3TC       0.060200
     25 H82         -2.4510    -3.2280     2.1540 h1         1 3TC       0.060200
     26 HO3         -0.7760    -1.2160     3.1990 ho         1 3TC       0.405000
@<TRIPOS>BOND
     1     1     2 2   
     2     2     3 1   
     3     2     8 1   
     4     3     4 2   
     5     4     5 1   
     6     4     6 1   
     7     5    16 1   
     8     5    17 1   
     9     6     7 2   
    10     6    18 1   
    11     7     8 1   
    12     7    19 1   
    13     8     9 1   
    14     9    10 1   
    15     9    11 1   
    16     9    20 1   
    17    10    13 1   
    18    10    21 1   
    19    10    22 1   
    20    11    12 1   
    21    12    13 1   
    22    12    14 1   
    23    12    23 1   
    24    14    15 1   
    25    14    24 1   
    26    14    25 1   
    27    15    26 1   
@<TRIPOS>SUBSTRUCTURE
     1 3TC         1 TEMP              0 ****  ****    0 ROOT
