@<TRIPOS>MOLECULE
3TE
   49    52     1     0     0
SMALL
abcg2


@<TRIPOS>ATOM
      1 C1           0.6940    -1.2280     0.7240 cc         1 3TE       0.575300
      2 C2           2.3100    -2.6440     1.1000 cd         1 3TE       0.302900
      3 C3           3.0740    -1.5260     1.1320 cc         1 3TE      -0.225300
      4 C4           4.5500    -1.4190     1.3450 c3         1 3TE       0.048200
      5 C5           5.2610    -0.8090     0.1610 ca         1 3TE      -0.074300
      6 C6           5.4430     0.5990     0.0470 ca         1 3TE      -0.023000
      7 S            2.0550    -0.1520     0.8500 ss         1 3TE      -0.091400
      8 N1           0.9710    -2.4760     0.8720 nd         1 3TE      -0.650000
      9 C7           5.0280     1.5140     1.0470 ca         1 3TE      -0.107000
     10 C8           5.2090     2.8620     0.8940 ca         1 3TE      -0.105000
     11 N2          -6.8640    -0.7070    -0.0440 nb         1 3TE      -0.196000
     12 C9           5.8210     3.3740    -0.2680 ca         1 3TE      -0.109000
     13 C10          6.2420     2.5190    -1.2480 ca         1 3TE      -0.096000
     14 O           -1.8370    -2.5730     0.4500 o          1 3TE      -0.503100
     15 C           -1.7270    -1.3740     0.3520 c          1 3TE       0.619100
     16 C15         -2.8980    -0.4630     0.0600 c3         1 3TE      -0.083400
     17 S1          -4.4040    -1.4540     0.1610 ss         1 3TE      -0.209300
     18 C16         -5.6310    -0.2260    -0.1100 ca         1 3TE       0.222300
     19 N3          -5.2720     1.0200    -0.3460 nb         1 3TE      -0.196000
     20 C20         -6.2570     1.9020    -0.5330 ca         1 3TE       0.144800
     21 C21         -5.8610     3.3120    -0.8180 c3         1 3TE      -0.151400
     22 C19         -7.5840     1.5040    -0.4770 ca         1 3TE      -0.231000
     23 C17         -7.8540     0.1630    -0.2280 ca         1 3TE       0.144800
     24 C18         -9.2490    -0.3630    -0.1480 c3         1 3TE      -0.151400
     25 N           -0.5510    -0.6880     0.4830 ns         1 3TE      -0.482400
     26 C14          5.7030    -1.6280    -0.8470 ca         1 3TE      -0.094000
     27 C13          6.3290    -1.1100    -1.9970 ca         1 3TE      -0.106000
     28 C12          6.5040     0.2380    -2.1340 ca         1 3TE      -0.095000
     29 C11          6.0680     1.1210    -1.1200 ca         1 3TE      -0.037000
     30 H1           2.7000    -3.6430     1.2440 h4         1 3TE       0.043100
     31 H2           4.7660    -0.8740     2.2660 hc         1 3TE       0.061700
     32 H3           4.9230    -2.4320     1.5070 hc         1 3TE       0.061700
     33 H4           4.5710     1.1530     1.9590 ha         1 3TE       0.113000
     34 H5           4.8850     3.5390     1.6730 ha         1 3TE       0.113000
     35 H6           5.9590     4.4420    -0.3770 ha         1 3TE       0.114000
     36 H7           6.7180     2.9040    -2.1420 ha         1 3TE       0.113000
     37 H8          -2.9360     0.3630     0.7710 h1         1 3TE       0.094200
     38 H9          -2.7890    -0.0300    -0.9370 h1         1 3TE       0.094200
     39 H10         -5.4100     3.3800    -1.8090 hc         1 3TE       0.057200
     40 H11         -6.7150     3.9850    -0.7870 hc         1 3TE       0.057200
     41 H12         -5.1150     3.6550    -0.1010 hc         1 3TE       0.057200
     42 H13         -8.3850     2.2160    -0.6190 ha         1 3TE       0.133000
     43 H14         -9.4350    -0.7940     0.8360 hc         1 3TE       0.057200
     44 H15         -9.9840     0.4190    -0.3270 hc         1 3TE       0.057200
     45 H16         -9.4000    -1.1560    -0.8810 hc         1 3TE       0.057200
     46 H17         -0.5990     0.3170     0.3930 hn         1 3TE       0.331500
     47 H18          5.5640    -2.6990    -0.7590 ha         1 3TE       0.114000
     48 H19          6.6650    -1.7870    -2.7720 ha         1 3TE       0.116000
     49 H20          6.9770     0.6460    -3.0190 ha         1 3TE       0.114000
@<TRIPOS>BOND
     1     1     7 1   
     2     1     8 2   
     3     1    25 1   
     4     2     3 2   
     5     2     8 1   
     6     2    30 1   
     7     3     4 1   
     8     3     7 1   
     9     4     5 1   
    10     4    31 1   
    11     4    32 1   
    12     5     6 ar  
    13     5    26 ar  
    14     6     9 ar  
    15     6    29 ar  
    16     9    10 ar  
    17     9    33 1   
    18    10    12 ar  
    19    10    34 1   
    20    11    18 ar  
    21    11    23 ar  
    22    12    13 ar  
    23    12    35 1   
    24    13    29 ar  
    25    13    36 1   
    26    14    15 2   
    27    15    16 1   
    28    15    25 1   
    29    16    17 1   
    30    16    37 1   
    31    16    38 1   
    32    17    18 1   
    33    18    19 ar  
    34    19    20 ar  
    35    20    21 1   
    36    20    22 ar  
    37    21    39 1   
    38    21    40 1   
    39    21    41 1   
    40    22    23 ar  
    41    22    42 1   
    42    23    24 1   
    43    24    43 1   
    44    24    44 1   
    45    24    45 1   
    46    25    46 1   
    47    26    27 ar  
    48    26    47 1   
    49    27    28 ar  
    50    27    48 1   
    51    28    29 ar  
    52    28    49 1   
@<TRIPOS>SUBSTRUCTURE
     1 3TE         1 TEMP              0 ****  ****    0 ROOT
