@<TRIPOS>MOLECULE
3TE
   49    52     1     0     0
SMALL
No Charge or Current Charge


@<TRIPOS>ATOM
      1 C1           0.6520    -0.3990     0.6920 cc         1 3TE       0.575300
      2 C2           2.6280    -1.2860     0.1960 cd         1 3TE       0.302900
      3 C3           3.0140    -0.4640     1.2320 cc         1 3TE      -0.225300
      4 C4           4.3990    -0.2760     1.7940 c3         1 3TE       0.048200
      5 C5           5.5000    -0.4800     0.7510 ca         1 3TE      -0.074300
      6 C6           5.7440     0.4570    -0.2900 ca         1 3TE      -0.023000
      7 S            1.6540     0.4100     1.8710 ss         1 3TE      -0.091400
      8 N1           1.2750    -1.2470    -0.1080 nd         1 3TE      -0.650000
      9 C7           4.9820     1.6430    -0.4220 ca         1 3TE      -0.107000
     10 C8           5.2440     2.5500    -1.4620 ca         1 3TE      -0.105000
     11 N2          -6.9890    -0.3760    -1.2860 nb         1 3TE      -0.196000
     12 C9           6.2680     2.2890    -2.3840 ca         1 3TE      -0.109000
     13 C10          7.0320     1.1180    -2.2690 ca         1 3TE      -0.096000
     14 O           -1.4040    -1.4990    -1.0950 o          1 3TE      -0.503100
     15 C           -1.6450    -0.6760    -0.2230 c          1 3TE       0.619100
     16 C15         -3.0590    -0.1300     0.0290 c3         1 3TE      -0.083400
     17 S1          -4.3550    -0.8290    -1.1110 ss         1 3TE      -0.209300
     18 C16         -5.8770    -0.0330    -0.6010 ca         1 3TE       0.222300
     19 N3          -5.8230     0.8490     0.4220 nb         1 3TE      -0.196000
     20 C20         -6.9790     1.4350     0.7910 ca         1 3TE       0.144800
     21 C21         -6.9150     2.4270     1.9380 c3         1 3TE      -0.151400
     22 C19         -8.1860     1.1410     0.1350 ca         1 3TE      -0.231000
     23 C17         -8.1440     0.2130    -0.9190 ca         1 3TE       0.144800
     24 C18         -9.3930    -0.1750    -1.6870 c3         1 3TE      -0.151400
     25 N           -0.6980    -0.1470     0.6250 ns         1 3TE      -0.482400
     26 C14          6.2850    -1.6490     0.8250 ca         1 3TE      -0.094000
     27 C13          7.3030    -1.8910    -0.1090 ca         1 3TE      -0.106000
     28 C12          7.5490    -0.9670    -1.1340 ca         1 3TE      -0.095000
     29 C11          6.7750     0.2030    -1.2300 ca         1 3TE      -0.037000
     30 H1           3.2830    -1.9340    -0.3730 h4         1 3TE       0.043100
     31 H2           4.4920     0.7200     2.2440 hc         1 3TE       0.061700
     32 H3           4.5340    -0.9740     2.6300 hc         1 3TE       0.061700
     33 H4           4.1800     1.8770     0.2720 ha         1 3TE       0.113000
     34 H5           4.6510     3.4580    -1.5520 ha         1 3TE       0.113000
     35 H6           6.4690     2.9940    -3.1890 ha         1 3TE       0.114000
     36 H7           7.8230     0.9220    -2.9890 ha         1 3TE       0.113000
     37 H8          -3.3290    -0.3610     1.0670 h1         1 3TE       0.094200
     38 H9          -3.0250     0.9600    -0.0880 h1         1 3TE       0.094200
     39 H10         -6.5830     3.4090     1.5840 hc         1 3TE       0.057200
     40 H11         -7.8960     2.5550     2.4090 hc         1 3TE       0.057200
     41 H12         -6.2160     2.0940     2.7140 hc         1 3TE       0.057200
     42 H13         -9.1180     1.6150     0.4320 ha         1 3TE       0.133000
     43 H14         -9.8050    -1.1190    -1.3100 hc         1 3TE       0.057200
     44 H15        -10.1730     0.5900    -1.5960 hc         1 3TE       0.057200
     45 H16         -9.1810    -0.3040    -2.7560 hc         1 3TE       0.057200
     46 H17         -1.0560     0.5210     1.2920 hn         1 3TE       0.331500
     47 H18          6.1070    -2.3790     1.6120 ha         1 3TE       0.114000
     48 H19          7.9020    -2.7970    -0.0390 ha         1 3TE       0.116000
     49 H20          8.3390    -1.1630    -1.8550 ha         1 3TE       0.114000
@<TRIPOS>BOND
     1     1     7 1   
     2     1     8 2   
     3     1    25 1   
     4     2     3 2   
     5     2     8 1   
     6     2    30 1   
     7     3     4 1   
     8     3     7 1   
     9     4     5 1   
    10     4    31 1   
    11     4    32 1   
    12     5     6 ar  
    13     5    26 ar  
    14     6     9 ar  
    15     6    29 ar  
    16     9    10 ar  
    17     9    33 1   
    18    10    12 ar  
    19    10    34 1   
    20    11    18 ar  
    21    11    23 ar  
    22    12    13 ar  
    23    12    35 1   
    24    13    29 ar  
    25    13    36 1   
    26    14    15 2   
    27    15    16 1   
    28    15    25 1   
    29    16    17 1   
    30    16    37 1   
    31    16    38 1   
    32    17    18 1   
    33    18    19 ar  
    34    19    20 ar  
    35    20    21 1   
    36    20    22 ar  
    37    21    39 1   
    38    21    40 1   
    39    21    41 1   
    40    22    23 ar  
    41    22    42 1   
    42    23    24 1   
    43    24    43 1   
    44    24    44 1   
    45    24    45 1   
    46    25    46 1   
    47    26    27 ar  
    48    26    47 1   
    49    27    28 ar  
    50    27    48 1   
    51    28    29 ar  
    52    28    49 1   
@<TRIPOS>SUBSTRUCTURE
     1 3TE         1 TEMP              0 ****  ****    0 ROOT
