@<TRIPOS>MOLECULE
3TF
  133   133     1     0     0
SMALL
No Charge or Current Charge


@<TRIPOS>ATOM
      1 C1          -1.3070     3.6160    -0.2400 c6         1 3TF       0.355300
      2 O1          -0.9280     3.4530     1.1380 os         1 3TF      -0.451000
      3 C2          -2.0140     2.3180    -0.7540 c6         1 3TF       0.119300
      4 O2          -3.1100     1.9390     0.1100 oh         1 3TF      -0.713000
      5 C3          -0.9870     1.1510    -0.8330 c6         1 3TF       0.134300
      6 O3          -1.6100    -0.0270    -1.3790 oh         1 3TF      -0.672000
      7 C4           0.2470     1.5650    -1.6820 c6         1 3TF       0.151300
      8 O4           1.1890     0.4780    -1.7180 oh         1 3TF      -0.717000
      9 C5           0.8630     2.8640    -1.0790 c6         1 3TF       0.164300
     10 O5          -0.1420     3.9150    -1.0400 os         1 3TF      -0.462000
     11 C6           2.0930     3.3780    -1.8980 c3         1 3TF       0.167600
     12 O6           2.6440     4.6120    -1.3930 oh         1 3TF      -0.713000
     13 C7          -0.4460     4.6270     1.8180 c3         1 3TF       0.140600
     14 O7          -1.6800     2.5280     3.7300 os         1 3TF      -0.424100
     15 C8           0.0270     4.2580     3.2580 c3         1 3TF       0.169300
     16 O8           1.0910     3.2730     3.2060 os         1 3TF      -0.435100
     17 C9          -1.0780     3.7450     4.2230 c3         1 3TF       0.171600
     18 O9           2.6610     4.8210     2.5690 o          1 3TF      -0.490000
     19 C10         -2.5420     1.8620     4.5600 c          1 3TF       0.601100
     20 O10         -2.8080     2.2060     5.7040 o          1 3TF      -0.499000
     21 C11         -3.1320     0.6180     3.8940 c3         1 3TF      -0.143400
     22 C12         -4.5720     0.8830     3.3960 c3         1 3TF      -0.065400
     23 C13         -5.2260    -0.3450     2.7270 c3         1 3TF      -0.076400
     24 C14         -6.6680    -0.0660     2.2510 c3         1 3TF      -0.073400
     25 C15         -7.3530    -1.2940     1.6140 c3         1 3TF      -0.075400
     26 C16         -8.7980    -0.9990     1.1520 c3         1 3TF      -0.074400
     27 C17         -9.5030    -2.2220     0.5250 c3         1 3TF      -0.074400
     28 C18        -10.9420    -1.9100     0.0590 c3         1 3TF      -0.074400
     29 C19        -11.6550    -3.1260    -0.5710 c3         1 3TF      -0.074400
     30 C20        -13.0850    -2.8000    -1.0570 c3         1 3TF      -0.074400
     31 C21        -13.8010    -4.0100    -1.6950 c3         1 3TF      -0.074400
     32 C22        -15.2220    -3.6730    -2.1980 c3         1 3TF      -0.074400
     33 C23        -15.9440    -4.8830    -2.8310 c3         1 3TF      -0.075400
     34 C24        -17.3580    -4.5400    -3.3480 c3         1 3TF      -0.074400
     35 C25        -18.0820    -5.7480    -3.9740 c3         1 3TF      -0.088100
     36 C26          2.3350     3.6610     2.7800 c          1 3TF       0.600100
     37 C27          3.3450     2.5120     2.8620 c3         1 3TF      -0.132400
     38 C28          3.8270     2.0660     1.4610 c3         1 3TF      -0.068400
     39 C29          4.9380     0.9960     1.5190 c3         1 3TF      -0.076400
     40 C30          5.4960     0.6260     0.1270 c3         1 3TF      -0.075400
     41 C31          6.5880    -0.4650     0.1900 c3         1 3TF      -0.074400
     42 C32          7.2410    -0.7510    -1.1810 c3         1 3TF      -0.075400
     43 C33          8.2970    -1.8780    -1.1210 c3         1 3TF      -0.075400
     44 C34          9.0510    -2.0750    -2.4560 c3         1 3TF      -0.072400
     45 C35         10.0600    -3.2410    -2.4150 c3         1 3TF      -0.043200
     46 C36         10.8930    -3.3230    -3.6820 c2         1 3TF      -0.216200
     47 C37         12.2200    -3.1280    -3.7940 c2         1 3TF      -0.215200
     48 C38         13.1830    -2.7550    -2.6820 c3         1 3TF      -0.044200
     49 C39         13.7260    -3.9970    -1.9450 c3         1 3TF      -0.072400
     50 C40         14.6350    -3.6500    -0.7450 c3         1 3TF      -0.075400
     51 C41         15.1520    -4.9020    -0.0030 c3         1 3TF      -0.075400
     52 C42         16.0250    -4.5630     1.2250 c3         1 3TF      -0.074400
     53 C43         16.5400    -5.8150     1.9620 c3         1 3TF      -0.088100
     54 H1          -2.0190     4.4510    -0.3180 h2         1 3TF       0.065700
     55 H2          -2.3910     2.5200    -1.7670 h1         1 3TF       0.054700
     56 HO2         -2.8180     2.1770     1.0220 ho         1 3TF       0.512000
     57 H3          -0.6370     0.9430     0.1900 h1         1 3TF       0.076700
     58 HO3         -2.5310    -0.0130    -1.0280 ho         1 3TF       0.464000
     59 H4          -0.0950     1.7910    -2.7030 h1         1 3TF       0.046700
     60 HO4          0.6290    -0.3310    -1.8060 ho         1 3TF       0.524000
     61 H5           1.2020     2.6630    -0.0530 h1         1 3TF       0.081700
     62 H6           2.8650     2.5950    -1.8860 h1         1 3TF       0.035200
     63 H6A          1.7770     3.5060    -2.9420 h1         1 3TF       0.035200
     64 HO6          3.3420     4.8960    -2.0280 ho         1 3TF       0.503000
     65 H7           0.3900     5.0770     1.2670 h1         1 3TF       0.049700
     66 H7A         -1.2400     5.3820     1.8870 h1         1 3TF       0.049700
     67 H8           0.4070     5.1820     3.7150 h1         1 3TF       0.074700
     68 H9          -1.8410     4.5260     4.3440 h1         1 3TF       0.058700
     69 H9A         -0.6180     3.5760     5.2050 h1         1 3TF       0.058700
     70 H11         -2.5150     0.3400     3.0310 hc         1 3TF       0.077200
     71 H11A        -3.1530    -0.1980     4.6260 hc         1 3TF       0.077200
     72 H12         -5.1920     1.1980     4.2460 hc         1 3TF       0.053200
     73 H12A        -4.5630     1.7200     2.6870 hc         1 3TF       0.053200
     74 H13         -4.6170    -0.6590     1.8700 hc         1 3TF       0.035700
     75 H13A        -5.2370    -1.1810     3.4380 hc         1 3TF       0.035700
     76 H14         -7.2680     0.2740     3.1050 hc         1 3TF       0.040700
     77 H14A        -6.6540     0.7560     1.5240 hc         1 3TF       0.040700
     78 H15         -6.7610    -1.6350     0.7550 hc         1 3TF       0.036200
     79 H15A        -7.3690    -2.1160     2.3410 hc         1 3TF       0.036200
     80 H16         -9.3840    -0.6470     2.0100 hc         1 3TF       0.038200
     81 H16A        -8.7790    -0.1810     0.4200 hc         1 3TF       0.038200
     82 H17         -8.9150    -2.5770    -0.3310 hc         1 3TF       0.036700
     83 H17A        -9.5290    -3.0380     1.2580 hc         1 3TF       0.036700
     84 H18        -11.5280    -1.5530     0.9150 hc         1 3TF       0.037700
     85 H18A       -10.9130    -1.0920    -0.6720 hc         1 3TF       0.037700
     86 H19        -11.0620    -3.4930    -1.4180 hc         1 3TF       0.036700
     87 H19A       -11.7010    -3.9390     0.1650 hc         1 3TF       0.036700
     88 H20        -13.6790    -2.4350    -0.2090 hc         1 3TF       0.037700
     89 H20A       -13.0370    -1.9840    -1.7890 hc         1 3TF       0.037700
     90 H21        -13.2010    -4.3830    -2.5340 hc         1 3TF       0.036700
     91 H21A       -13.8620    -4.8220    -0.9590 hc         1 3TF       0.036700
     92 H22        -15.8210    -3.2950    -1.3600 hc         1 3TF       0.036700
     93 H22A       -15.1590    -2.8650    -2.9370 hc         1 3TF       0.036700
     94 H23        -15.3400    -5.2680    -3.6630 hc         1 3TF       0.036700
     95 H23A       -16.0160    -5.6880    -2.0890 hc         1 3TF       0.036700
     96 H24        -17.9640    -4.1520    -2.5200 hc         1 3TF       0.036700
     97 H24A       -17.2880    -3.7410    -4.0960 hc         1 3TF       0.036700
     98 H25        -17.5160    -6.1410    -4.8270 hc         1 3TF       0.031367
     99 H25A       -18.2030    -6.5520    -3.2380 hc         1 3TF       0.031367
    100 H25B       -19.0770    -5.4550    -4.3280 hc         1 3TF       0.031367
    101 H27          4.2110     2.8550     3.4400 hc         1 3TF       0.073700
    102 H27A         2.8810     1.6490     3.3530 hc         1 3TF       0.073700
    103 H28          2.9780     1.6660     0.8940 hc         1 3TF       0.054200
    104 H28A         4.1980     2.9420     0.9120 hc         1 3TF       0.054200
    105 H29          5.7610     1.3640     2.1450 hc         1 3TF       0.036700
    106 H29A         4.5440     0.0940     2.0040 hc         1 3TF       0.036700
    107 H30          4.6760     0.2800    -0.5150 hc         1 3TF       0.039200
    108 H30A         5.9130     1.5270    -0.3420 hc         1 3TF       0.039200
    109 H31          7.3680    -0.1540     0.8970 hc         1 3TF       0.037700
    110 H31A         6.1500    -1.3900     0.5850 hc         1 3TF       0.037700
    111 H32          6.4640    -1.0240    -1.9050 hc         1 3TF       0.038200
    112 H32A         7.7140     0.1680    -1.5490 hc         1 3TF       0.038200
    113 H33          9.0240    -1.6500    -0.3320 hc         1 3TF       0.037200
    114 H33A         7.8030    -2.8170    -0.8400 hc         1 3TF       0.037200
    115 H34          8.3280    -2.2530    -3.2630 hc         1 3TF       0.040200
    116 H34A         9.5850    -1.1490    -2.7030 hc         1 3TF       0.040200
    117 H35         10.6960    -3.1300    -1.5300 hc         1 3TF       0.044200
    118 H35A         9.5110    -4.1810    -2.2740 hc         1 3TF       0.044200
    119 H36         10.3140    -3.5830    -4.5700 ha         1 3TF       0.165000
    120 H37         12.6960    -3.2280    -4.7710 ha         1 3TF       0.165000
    121 H38         14.0230    -2.1810    -3.0930 hc         1 3TF       0.043700
    122 H38A        12.6930    -2.0920    -1.9580 hc         1 3TF       0.043700
    123 H39         12.8800    -4.5990    -1.5900 hc         1 3TF       0.039700
    124 H39A        14.2830    -4.6190    -2.6570 hc         1 3TF       0.039700
    125 H40         15.4890    -3.0590    -1.0980 hc         1 3TF       0.036700
    126 H40A        14.0770    -3.0210    -0.0410 hc         1 3TF       0.036700
    127 H41         14.2960    -5.5070     0.3230 hc         1 3TF       0.037200
    128 H41A        15.7320    -5.5200    -0.7010 hc         1 3TF       0.037200
    129 H42         16.8830    -3.9580     0.9060 hc         1 3TF       0.036700
    130 H42A        15.4450    -3.9510     1.9270 hc         1 3TF       0.036700
    131 H43         17.1470    -5.5260     2.8280 hc         1 3TF       0.031367
    132 H43A        15.7030    -6.4270     2.3200 hc         1 3TF       0.031367
    133 H43B        17.1610    -6.4290     1.2980 hc         1 3TF       0.031367
@<TRIPOS>BOND
     1     1     2 1   
     2     1     3 1   
     3     1    10 1   
     4     1    54 1   
     5     2    13 1   
     6     3     4 1   
     7     3     5 1   
     8     3    55 1   
     9     4    56 1   
    10     5     6 1   
    11     5     7 1   
    12     5    57 1   
    13     6    58 1   
    14     7     8 1   
    15     7     9 1   
    16     7    59 1   
    17     8    60 1   
    18     9    10 1   
    19     9    11 1   
    20     9    61 1   
    21    11    12 1   
    22    11    62 1   
    23    11    63 1   
    24    12    64 1   
    25    13    15 1   
    26    13    65 1   
    27    13    66 1   
    28    14    17 1   
    29    14    19 1   
    30    15    16 1   
    31    15    17 1   
    32    15    67 1   
    33    16    36 1   
    34    17    68 1   
    35    17    69 1   
    36    18    36 2   
    37    19    20 2   
    38    19    21 1   
    39    21    22 1   
    40    21    70 1   
    41    21    71 1   
    42    22    23 1   
    43    22    72 1   
    44    22    73 1   
    45    23    24 1   
    46    23    74 1   
    47    23    75 1   
    48    24    25 1   
    49    24    76 1   
    50    24    77 1   
    51    25    26 1   
    52    25    78 1   
    53    25    79 1   
    54    26    27 1   
    55    26    80 1   
    56    26    81 1   
    57    27    28 1   
    58    27    82 1   
    59    27    83 1   
    60    28    29 1   
    61    28    84 1   
    62    28    85 1   
    63    29    30 1   
    64    29    86 1   
    65    29    87 1   
    66    30    31 1   
    67    30    88 1   
    68    30    89 1   
    69    31    32 1   
    70    31    90 1   
    71    31    91 1   
    72    32    33 1   
    73    32    92 1   
    74    32    93 1   
    75    33    34 1   
    76    33    94 1   
    77    33    95 1   
    78    34    35 1   
    79    34    96 1   
    80    34    97 1   
    81    35    98 1   
    82    35    99 1   
    83    35   100 1   
    84    36    37 1   
    85    37    38 1   
    86    37   101 1   
    87    37   102 1   
    88    38    39 1   
    89    38   103 1   
    90    38   104 1   
    91    39    40 1   
    92    39   105 1   
    93    39   106 1   
    94    40    41 1   
    95    40   107 1   
    96    40   108 1   
    97    41    42 1   
    98    41   109 1   
    99    41   110 1   
   100    42    43 1   
   101    42   111 1   
   102    42   112 1   
   103    43    44 1   
   104    43   113 1   
   105    43   114 1   
   106    44    45 1   
   107    44   115 1   
   108    44   116 1   
   109    45    46 1   
   110    45   117 1   
   111    45   118 1   
   112    46    47 2   
   113    46   119 1   
   114    47    48 1   
   115    47   120 1   
   116    48    49 1   
   117    48   121 1   
   118    48   122 1   
   119    49    50 1   
   120    49   123 1   
   121    49   124 1   
   122    50    51 1   
   123    50   125 1   
   124    50   126 1   
   125    51    52 1   
   126    51   127 1   
   127    51   128 1   
   128    52    53 1   
   129    52   129 1   
   130    52   130 1   
   131    53   131 1   
   132    53   132 1   
   133    53   133 1   
@<TRIPOS>SUBSTRUCTURE
     1 3TF         1 TEMP              0 ****  ****    0 ROOT
