@<TRIPOS>MOLECULE
3TF
  133   133     1     0     0
SMALL
bcc


@<TRIPOS>ATOM
      1 C1          -1.4160     4.6710    -0.8210 c6         1 3TF       0.308900
      2 O1          -1.2780     4.3540     0.5220 os         1 3TF      -0.404600
      3 C2          -2.6020     3.8820    -1.3820 c6         1 3TF       0.096100
      4 O2          -3.7790     4.0630    -0.6380 oh         1 3TF      -0.590800
      5 C3          -2.2780     2.3950    -1.3940 c6         1 3TF       0.111100
      6 O3          -3.2910     1.6470    -2.0270 oh         1 3TF      -0.609800
      7 C4          -0.9800     2.1520    -2.1550 c6         1 3TF       0.128100
      8 O4          -0.5770     0.8070    -2.0740 oh         1 3TF      -0.594800
      9 C5           0.1280     3.0140    -1.5500 c6         1 3TF       0.141100
     10 O5          -0.2630     4.3780    -1.5600 os         1 3TF      -0.415600
     11 C6           1.4210     2.9120    -2.3290 c3         1 3TF       0.144400
     12 O6           2.4010     3.6850    -1.6740 oh         1 3TF      -0.590800
     13 C7          -0.4390     5.2110     1.2610 c3         1 3TF       0.117400
     14 O7          -1.6140     2.9150     2.8400 os         1 3TF      -0.400900
     15 C8           0.1540     4.4930     2.4610 c3         1 3TF       0.146100
     16 O8           0.9910     3.4090     2.0500 os         1 3TF      -0.411900
     17 C9          -0.8490     3.9460     3.4530 c3         1 3TF       0.148400
     18 O9           2.7680     4.7490     1.8300 o          1 3TF      -0.539000
     19 C10         -2.8480     2.6810     3.2690 c          1 3TF       0.650100
     20 O10         -3.3150     3.1800     4.2630 o          1 3TF      -0.548000
     21 C11         -3.5750     1.7610     2.3300 c3         1 3TF      -0.143400
     22 C12         -4.9110     1.2490     2.8430 c3         1 3TF      -0.065400
     23 C13         -5.6460     0.4660     1.7620 c3         1 3TF      -0.076400
     24 C14         -7.0080    -0.0520     2.2030 c3         1 3TF      -0.073400
     25 C15         -7.7500    -0.7770     1.0870 c3         1 3TF      -0.075400
     26 C16         -9.1180    -1.3040     1.5020 c3         1 3TF      -0.074400
     27 C17         -9.8560    -2.0000     0.3650 c3         1 3TF      -0.074400
     28 C18        -11.2260    -2.5330     0.7640 c3         1 3TF      -0.074400
     29 C19        -11.9590    -3.2140    -0.3860 c3         1 3TF      -0.074400
     30 C20        -13.3330    -3.7470     0.0000 c3         1 3TF      -0.074400
     31 C21        -14.0600    -4.4200    -1.1580 c3         1 3TF      -0.074400
     32 C22        -15.4390    -4.9490    -0.7820 c3         1 3TF      -0.074400
     33 C23        -16.1620    -5.6170    -1.9440 c3         1 3TF      -0.075400
     34 C24        -17.5470    -6.1360    -1.5770 c3         1 3TF      -0.074400
     35 C25        -18.2540    -6.8090    -2.7450 c3         1 3TF      -0.088100
     36 C26          2.2710     3.6540     1.7600 c          1 3TF       0.649100
     37 C27          2.9890     2.3960     1.3580 c3         1 3TF      -0.132400
     38 C28          4.4580     2.6090     1.0380 c3         1 3TF      -0.068400
     39 C29          5.1200     1.3330     0.5330 c3         1 3TF      -0.076400
     40 C30          6.5990     1.5210     0.2230 c3         1 3TF      -0.075400
     41 C31          7.2720     0.2580    -0.3010 c3         1 3TF      -0.074400
     42 C32          8.7540     0.4520    -0.5960 c3         1 3TF      -0.075400
     43 C33          9.4350    -0.8030    -1.1290 c3         1 3TF      -0.075400
     44 C34         10.9200    -0.6020    -1.4030 c3         1 3TF      -0.072400
     45 C35         11.6070    -1.8600    -1.9390 c3         1 3TF      -0.043200
     46 C36         13.0500    -1.6160    -2.2570 c2         1 3TF      -0.166200
     47 C37         14.1120    -2.0990    -1.6130 c2         1 3TF      -0.165200
     48 C38         14.1140    -3.0390    -0.4470 c3         1 3TF      -0.044200
     49 C39         14.6190    -4.4300    -0.8330 c3         1 3TF      -0.072400
     50 C40         14.6540    -5.4010     0.3410 c3         1 3TF      -0.075400
     51 C41         15.1570    -6.7860    -0.0450 c3         1 3TF      -0.075400
     52 C42         15.1560    -7.7770     1.1130 c3         1 3TF      -0.074400
     53 C43         15.6630    -9.1550     0.7130 c3         1 3TF      -0.088100
     54 H1          -1.5790     5.7490    -0.9620 h2         1 3TF       0.065700
     55 H2          -2.7390     4.2120    -2.4220 h1         1 3TF       0.054700
     56 HO2         -4.1630     4.9170    -0.8590 ho         1 3TF       0.413000
     57 H3          -2.1320     2.0540    -0.3580 h1         1 3TF       0.076700
     58 HO3         -4.1110     1.7740    -1.5390 ho         1 3TF       0.425000
     59 H4          -1.1300     2.4570    -3.2030 h1         1 3TF       0.046700
     60 HO4         -1.2700     0.2610    -2.4590 ho         1 3TF       0.425000
     61 H5           0.3080     2.6740    -0.5220 h1         1 3TF       0.081700
     62 H6           1.7090     1.8580    -2.3850 h1         1 3TF       0.035200
     63 H6A          1.2530     3.2570    -3.3590 h1         1 3TF       0.035200
     64 HO6          3.2550     3.4730    -2.0600 ho         1 3TF       0.404000
     65 H7           0.3830     5.5980     0.6500 h1         1 3TF       0.049700
     66 H7A         -1.0000     6.0790     1.6290 h1         1 3TF       0.049700
     67 H8           0.7410     5.2380     3.0070 h1         1 3TF       0.074700
     68 H9          -1.4840     4.7670     3.7930 h1         1 3TF       0.058700
     69 H9A         -0.3260     3.5480     4.3270 h1         1 3TF       0.058700
     70 H11         -3.7250     2.3310     1.4070 hc         1 3TF       0.077200
     71 H11A        -2.9180     0.9310     2.0570 hc         1 3TF       0.077200
     72 H12         -4.7600     0.6170     3.7220 hc         1 3TF       0.053200
     73 H12A        -5.5300     2.0890     3.1670 hc         1 3TF       0.053200
     74 H13         -5.7720     1.1070     0.8820 hc         1 3TF       0.035700
     75 H13A        -5.0280    -0.3770     1.4330 hc         1 3TF       0.035700
     76 H14         -6.8850    -0.7250     3.0580 hc         1 3TF       0.040700
     77 H14A        -7.6170     0.7860     2.5600 hc         1 3TF       0.040700
     78 H15         -7.8680    -0.0970     0.2360 hc         1 3TF       0.036200
     79 H15A        -7.1370    -1.6100     0.7240 hc         1 3TF       0.036200
     80 H16         -9.0020    -1.9990     2.3410 hc         1 3TF       0.038200
     81 H16A        -9.7280    -0.4750     1.8780 hc         1 3TF       0.038200
     82 H17         -9.9690    -1.3010    -0.4710 hc         1 3TF       0.036700
     83 H17A        -9.2430    -2.8270    -0.0120 hc         1 3TF       0.036700
     84 H18        -11.1150    -3.2390     1.5930 hc         1 3TF       0.037700
     85 H18A       -11.8390    -1.7080     1.1470 hc         1 3TF       0.037700
     86 H19        -12.0660    -2.5060    -1.2150 hc         1 3TF       0.036700
     87 H19A       -11.3450    -4.0380    -0.7690 hc         1 3TF       0.036700
     88 H20        -13.2270    -4.4600     0.8260 hc         1 3TF       0.037700
     89 H20A       -13.9460    -2.9250     0.3860 hc         1 3TF       0.037700
     90 H21        -14.1590    -3.7080    -1.9840 hc         1 3TF       0.036700
     91 H21A       -13.4480    -5.2440    -1.5410 hc         1 3TF       0.036700
     92 H22        -15.3410    -5.6620     0.0440 hc         1 3TF       0.036700
     93 H22A       -16.0510    -4.1240    -0.3990 hc         1 3TF       0.036700
     94 H23        -16.2510    -4.9060    -2.7730 hc         1 3TF       0.036700
     95 H23A       -15.5530    -6.4470    -2.3220 hc         1 3TF       0.036700
     96 H24        -17.4600    -6.8430    -0.7470 hc         1 3TF       0.036700
     97 H24A       -18.1560    -5.3060    -1.2050 hc         1 3TF       0.036700
     98 H25        -18.3680    -6.1240    -3.5870 hc         1 3TF       0.031367
     99 H25A       -17.6900    -7.6740    -3.1000 hc         1 3TF       0.031367
    100 H25B       -19.2500    -7.1580    -2.4670 hc         1 3TF       0.031367
    101 H27          2.8690     1.6610     2.1600 hc         1 3TF       0.073700
    102 H27A         2.4700     1.9770     0.4910 hc         1 3TF       0.073700
    103 H28          4.5610     3.3900     0.2810 hc         1 3TF       0.054200
    104 H28A         4.9860     2.9660     1.9260 hc         1 3TF       0.054200
    105 H29          5.0030     0.5380     1.2790 hc         1 3TF       0.036700
    106 H29A         4.5990     0.9870    -0.3660 hc         1 3TF       0.036700
    107 H30          6.7160     2.3240    -0.5130 hc         1 3TF       0.039200
    108 H30A         7.1190     1.8580     1.1270 hc         1 3TF       0.039200
    109 H31          7.1510    -0.5480     0.4310 hc         1 3TF       0.037700
    110 H31A         6.7590    -0.0740    -1.2100 hc         1 3TF       0.037700
    111 H32          8.8760     1.2640    -1.3230 hc         1 3TF       0.038200
    112 H32A         9.2660     0.7810     0.3150 hc         1 3TF       0.038200
    113 H33          9.3070    -1.6190    -0.4080 hc         1 3TF       0.037200
    114 H33A         8.9340    -1.1260    -2.0480 hc         1 3TF       0.037200
    115 H34         11.0510     0.2150    -2.1200 hc         1 3TF       0.040200
    116 H34A        11.4240    -0.2870    -0.4840 hc         1 3TF       0.040200
    117 H35         11.4930    -2.6730    -1.2180 hc         1 3TF       0.044200
    118 H35A        11.0900    -2.1820    -2.8490 hc         1 3TF       0.044200
    119 H36         13.2290    -0.9460    -3.0950 ha         1 3TF       0.115000
    120 H37         15.0950    -1.8110    -1.9750 ha         1 3TF       0.115000
    121 H38         14.7600    -2.6340     0.3390 hc         1 3TF       0.043700
    122 H38A        13.1160    -3.1240    -0.0090 hc         1 3TF       0.043700
    123 H39         13.9790    -4.8350    -1.6230 hc         1 3TF       0.039700
    124 H39A        15.6210    -4.3450    -1.2680 hc         1 3TF       0.039700
    125 H40         15.2880    -4.9910     1.1360 hc         1 3TF       0.036700
    126 H40A        13.6490    -5.4850     0.7690 hc         1 3TF       0.036700
    127 H41         14.5390    -7.1810    -0.8590 hc         1 3TF       0.037200
    128 H41A        16.1720    -6.7030    -0.4510 hc         1 3TF       0.037200
    129 H42         15.7700    -7.3830     1.9290 hc         1 3TF       0.036700
    130 H42A        14.1410    -7.8620     1.5140 hc         1 3TF       0.036700
    131 H43         15.6410    -9.8510     1.5520 hc         1 3TF       0.031367
    132 H43A        15.0520    -9.5820    -0.0850 hc         1 3TF       0.031367
    133 H43B        16.6910    -9.1080     0.3490 hc         1 3TF       0.031367
@<TRIPOS>BOND
     1     1     2 1   
     2     1     3 1   
     3     1    10 1   
     4     1    54 1   
     5     2    13 1   
     6     3     4 1   
     7     3     5 1   
     8     3    55 1   
     9     4    56 1   
    10     5     6 1   
    11     5     7 1   
    12     5    57 1   
    13     6    58 1   
    14     7     8 1   
    15     7     9 1   
    16     7    59 1   
    17     8    60 1   
    18     9    10 1   
    19     9    11 1   
    20     9    61 1   
    21    11    12 1   
    22    11    62 1   
    23    11    63 1   
    24    12    64 1   
    25    13    15 1   
    26    13    65 1   
    27    13    66 1   
    28    14    17 1   
    29    14    19 1   
    30    15    16 1   
    31    15    17 1   
    32    15    67 1   
    33    16    36 1   
    34    17    68 1   
    35    17    69 1   
    36    18    36 2   
    37    19    20 2   
    38    19    21 1   
    39    21    22 1   
    40    21    70 1   
    41    21    71 1   
    42    22    23 1   
    43    22    72 1   
    44    22    73 1   
    45    23    24 1   
    46    23    74 1   
    47    23    75 1   
    48    24    25 1   
    49    24    76 1   
    50    24    77 1   
    51    25    26 1   
    52    25    78 1   
    53    25    79 1   
    54    26    27 1   
    55    26    80 1   
    56    26    81 1   
    57    27    28 1   
    58    27    82 1   
    59    27    83 1   
    60    28    29 1   
    61    28    84 1   
    62    28    85 1   
    63    29    30 1   
    64    29    86 1   
    65    29    87 1   
    66    30    31 1   
    67    30    88 1   
    68    30    89 1   
    69    31    32 1   
    70    31    90 1   
    71    31    91 1   
    72    32    33 1   
    73    32    92 1   
    74    32    93 1   
    75    33    34 1   
    76    33    94 1   
    77    33    95 1   
    78    34    35 1   
    79    34    96 1   
    80    34    97 1   
    81    35    98 1   
    82    35    99 1   
    83    35   100 1   
    84    36    37 1   
    85    37    38 1   
    86    37   101 1   
    87    37   102 1   
    88    38    39 1   
    89    38   103 1   
    90    38   104 1   
    91    39    40 1   
    92    39   105 1   
    93    39   106 1   
    94    40    41 1   
    95    40   107 1   
    96    40   108 1   
    97    41    42 1   
    98    41   109 1   
    99    41   110 1   
   100    42    43 1   
   101    42   111 1   
   102    42   112 1   
   103    43    44 1   
   104    43   113 1   
   105    43   114 1   
   106    44    45 1   
   107    44   115 1   
   108    44   116 1   
   109    45    46 1   
   110    45   117 1   
   111    45   118 1   
   112    46    47 2   
   113    46   119 1   
   114    47    48 1   
   115    47   120 1   
   116    48    49 1   
   117    48   121 1   
   118    48   122 1   
   119    49    50 1   
   120    49   123 1   
   121    49   124 1   
   122    50    51 1   
   123    50   125 1   
   124    50   126 1   
   125    51    52 1   
   126    51   127 1   
   127    51   128 1   
   128    52    53 1   
   129    52   129 1   
   130    52   130 1   
   131    53   131 1   
   132    53   132 1   
   133    53   133 1   
@<TRIPOS>SUBSTRUCTURE
     1 3TF         1 TEMP              0 ****  ****    0 ROOT
