@<TRIPOS>MOLECULE
3TG
   40    42     1     0     0
SMALL
bcc


@<TRIPOS>ATOM
      1 C            1.3450     0.7790    -0.0480 c          1 3TG       0.544100
      2 N            3.6960     1.0770     0.6070 na         1 3TG      -0.181900
      3 O            1.7080     0.1460    -1.0060 o          1 3TG      -0.472100
      4 CA           2.3320     1.3380     0.9620 c3         1 3TG      -0.068700
      5 CAB         -0.9300    -3.9830     0.2390 ca         1 3TG      -0.125000
      6 CAC         -5.1090     1.7150     0.0800 ca         1 3TG      -0.125000
      7 CAD         -0.5190    -3.0900     1.2180 ca         1 3TG      -0.125500
      8 CAE         -1.3770    -3.4970    -0.9840 ca         1 3TG      -0.125500
      9 CAF         -4.3800     1.2020     1.1470 ca         1 3TG      -0.125500
     10 CAG         -4.5370     1.7510    -1.1830 ca         1 3TG      -0.125500
     11 CAH          5.5970     0.0940     0.2290 cc         1 3TG       0.299200
     12 CAI         -0.5560    -1.7210     0.9780 ca         1 3TG      -0.121000
     13 CAJ         -1.4110    -2.1310    -1.2180 ca         1 3TG      -0.121000
     14 CAK         -3.0920     0.7280     0.9500 ca         1 3TG      -0.121000
     15 CAL         -3.2440     1.2780    -1.3760 ca         1 3TG      -0.121000
     16 CAM          4.3860    -0.0810     0.8330 cd         1 3TG      -0.253600
     17 CAN          4.4970     1.8780    -0.1280 cd         1 3TG       0.394400
     18 CAO         -0.0960     1.1090     0.2380 c3         1 3TG      -0.173400
     19 NAQ          5.6550     1.3220    -0.3680 nc         1 3TG      -0.668000
     20 CAS         -1.0020    -1.2230    -0.2420 ca         1 3TG      -0.075300
     21 CAT         -2.5070     0.7630    -0.3150 ca         1 3TG      -0.075300
     22 CAU         -1.0960     0.2590    -0.5420 c3         1 3TG       0.043900
     23 HA           2.1730     2.4140     1.0590 h1         1 3TG       0.078200
     24 HAA          2.1150     0.9120     1.9440 h1         1 3TG       0.078200
     25 HAC         -6.1150     2.0830     0.2360 ha         1 3TG       0.131500
     26 HAD         -0.1630    -3.4550     2.1720 ha         1 3TG       0.130750
     27 HAE         -1.6940    -4.1840    -1.7580 ha         1 3TG       0.130750
     28 HAF         -4.8180     1.1700     2.1370 ha         1 3TG       0.130750
     29 HAG         -5.0950     2.1460    -2.0220 ha         1 3TG       0.130750
     30 HAH          6.4260    -0.5960     0.2000 h4         1 3TG       0.038100
     31 HAI         -0.2290    -1.0480     1.7620 ha         1 3TG       0.126750
     32 HAJ         -1.7590    -1.7610    -2.1750 ha         1 3TG       0.126750
     33 HAK         -2.5440     0.3230     1.7930 ha         1 3TG       0.126750
     34 HAL         -2.8040     1.3100    -2.3660 ha         1 3TG       0.126750
     35 HAM          3.9700    -0.9000     1.3960 h4         1 3TG       0.174000
     36 HAN          4.1840     2.8610    -0.4490 h5         1 3TG       0.051100
     37 HAO         -0.2730     1.0700     1.3170 hc         1 3TG       0.066200
     38 HAOA        -0.2310     2.1630    -0.0280 hc         1 3TG       0.066200
     39 HAU         -0.8760     0.3860    -1.6050 hc         1 3TG       0.073700
     40 HAB         -0.8980    -5.0490     0.4250 ha         1 3TG       0.131500
@<TRIPOS>BOND
     1     1     3 2   
     2     1     4 1   
     3     1    18 1   
     4     2     4 1   
     5     2    16 1   
     6     2    17 1   
     7     4    23 1   
     8     4    24 1   
     9     5     7 ar  
    10     5     8 ar  
    11     5    40 1   
    12     6     9 ar  
    13     6    10 ar  
    14     6    25 1   
    15     7    12 ar  
    16     7    26 1   
    17     8    13 ar  
    18     8    27 1   
    19     9    14 ar  
    20     9    28 1   
    21    10    15 ar  
    22    10    29 1   
    23    11    16 2   
    24    11    19 1   
    25    11    30 1   
    26    12    20 ar  
    27    12    31 1   
    28    13    20 ar  
    29    13    32 1   
    30    14    21 ar  
    31    14    33 1   
    32    15    21 ar  
    33    15    34 1   
    34    16    35 1   
    35    17    19 2   
    36    17    36 1   
    37    18    22 1   
    38    18    37 1   
    39    18    38 1   
    40    20    22 1   
    41    21    22 1   
    42    22    39 1   
@<TRIPOS>SUBSTRUCTURE
     1 3TG         1 TEMP              0 ****  ****    0 ROOT
