@<TRIPOS>MOLECULE
3TG
   40    42     1     0     0
SMALL
No Charge or Current Charge


@<TRIPOS>ATOM
      1 C            1.2450     2.0350     0.2680 c          1 3TG       0.544100
      2 N            3.0000     0.2300     0.5020 na         1 3TG      -0.160500
      3 O            1.6260     2.7020    -0.6850 o          1 3TG      -0.472100
      4 CA           2.2380     1.2960     1.1830 c3         1 3TG      -0.039400
      5 CAB          0.4560    -3.1650     0.1710 ca         1 3TG      -0.107000
      6 CAC         -5.3240     0.9780    -0.1470 ca         1 3TG      -0.107000
      7 CAD         -0.1880    -2.5090     1.2330 ca         1 3TG      -0.107500
      8 CAE          0.6440    -2.5000    -1.0520 ca         1 3TG      -0.107500
      9 CAF         -4.5790     1.2960     0.9990 ca         1 3TG      -0.107500
     10 CAG         -4.6620     0.6430    -1.3390 ca         1 3TG      -0.107500
     11 CAH          3.9040    -1.6900    -0.0160 cc         1 3TG       0.233900
     12 CAI         -0.6440    -1.1890     1.0720 ca         1 3TG      -0.103000
     13 CAJ          0.1890    -1.1800    -1.2120 ca         1 3TG      -0.103000
     14 CAK         -3.1730     1.2840     0.9550 ca         1 3TG      -0.103000
     15 CAL         -3.2570     0.6310    -1.3850 ca         1 3TG      -0.103000
     16 CAM          3.0990    -1.0870     0.9100 cd         1 3TG      -0.221000
     17 CAN          3.7690     0.3610    -0.6490 cd         1 3TG       0.394400
     18 CAO         -0.2480     1.9190     0.6080 c3         1 3TG      -0.173400
     19 NAQ          4.3200    -0.8030    -0.9690 nc         1 3TG      -0.668000
     20 CAS         -0.4580    -0.5120    -0.1520 ca         1 3TG      -0.075300
     21 CAT         -2.4960     0.9570    -0.2420 ca         1 3TG      -0.075300
     22 CAU         -0.9640     0.9200    -0.3390 c3         1 3TG       0.043900
     23 HA           2.9360     2.0370     1.5870 h1         1 3TG       0.078200
     24 HAA          1.6890     0.8570     2.0240 h1         1 3TG       0.078200
     25 HAC         -6.4110     0.9870    -0.1110 ha         1 3TG       0.113500
     26 HAD         -0.3360    -3.0230     2.1790 ha         1 3TG       0.112750
     27 HAE          1.1440    -3.0060    -1.8740 ha         1 3TG       0.112750
     28 HAF         -5.0900     1.5500     1.9250 ha         1 3TG       0.112750
     29 HAG         -5.2370     0.3920    -2.2280 ha         1 3TG       0.112750
     30 HAH          4.2190    -2.7250    -0.0560 h4         1 3TG       0.038100
     31 HAI         -1.1490    -0.6970     1.9000 ha         1 3TG       0.108750
     32 HAJ          0.3410    -0.6780    -2.1650 ha         1 3TG       0.108750
     33 HAK         -2.6240     1.5260     1.8600 ha         1 3TG       0.108750
     34 HAL         -2.7580     0.3640    -2.3130 ha         1 3TG       0.108750
     35 HAM          2.6030    -1.4910     1.7840 h4         1 3TG       0.156000
     36 HAN          3.8800     1.3020    -1.1750 h5         1 3TG       0.051100
     37 HAO         -0.3650     1.5830     1.6430 hc         1 3TG       0.066200
     38 HAOA        -0.7080     2.9060     0.4790 hc         1 3TG       0.066200
     39 HAU         -0.7100     1.2440    -1.3570 hc         1 3TG       0.073700
     40 HAB          0.8100    -4.1860     0.2950 ha         1 3TG       0.113500
@<TRIPOS>BOND
     1     1     3 2   
     2     1     4 1   
     3     1    18 1   
     4     2     4 1   
     5     2    16 1   
     6     2    17 1   
     7     4    23 1   
     8     4    24 1   
     9     5     7 ar  
    10     5     8 ar  
    11     5    40 1   
    12     6     9 ar  
    13     6    10 ar  
    14     6    25 1   
    15     7    12 ar  
    16     7    26 1   
    17     8    13 ar  
    18     8    27 1   
    19     9    14 ar  
    20     9    28 1   
    21    10    15 ar  
    22    10    29 1   
    23    11    16 2   
    24    11    19 1   
    25    11    30 1   
    26    12    20 ar  
    27    12    31 1   
    28    13    20 ar  
    29    13    32 1   
    30    14    21 ar  
    31    14    33 1   
    32    15    21 ar  
    33    15    34 1   
    34    16    35 1   
    35    17    19 2   
    36    17    36 1   
    37    18    22 1   
    38    18    37 1   
    39    18    38 1   
    40    20    22 1   
    41    21    22 1   
    42    22    39 1   
@<TRIPOS>SUBSTRUCTURE
     1 3TG         1 TEMP              0 ****  ****    0 ROOT
