@<TRIPOS>MOLECULE
3TH
   35    38     1     0     0
SMALL
abcg2


@<TRIPOS>ATOM
      1 CL          -6.3520     1.2420    -0.3930 cl         1 3TH      -0.146000
      2 C2          -4.7840     0.5920    -0.2000 cc         1 3TH      -0.018000
      3 C3          -4.4470    -0.7150    -0.1120 cd         1 3TH      -0.041000
      4 C4          -3.0330    -0.8630     0.0450 cd         1 3TH      -0.144000
      5 C5          -2.0280    -1.8450     0.1930 cd         1 3TH      -0.045000
      6 C6          -0.8260    -1.1790     0.2950 cc         1 3TH      -0.234600
      7 N7          -1.0600     0.1810     0.2150 na         1 3TH      -0.083000
      8 C9          -2.3840     0.3630     0.0650 cc         1 3TH      -0.204000
      9 S10         -3.4360     1.7100    -0.1010 ss         1 3TH       0.193000
     10 C11          0.4870    -1.8190     0.4640 c          1 3TH       0.642700
     11 O12          0.5700    -3.0370     0.5220 o          1 3TH      -0.568100
     12 N13          1.5660    -1.0100     0.5590 ns         1 3TH      -0.513900
     13 C14          2.9120    -1.5120     0.7410 c6         1 3TH       0.043700
     14 C15          3.7450    -0.5120     1.5290 c6         1 3TH      -0.043100
     15 C16          3.9490     0.7410     0.7310 ca         1 3TH      -0.146300
     16 C17          3.9900     2.0080     1.2930 ca         1 3TH      -0.075000
     17 C18          4.2290     3.1300     0.5100 ca         1 3TH      -0.138000
     18 C19          4.4230     2.9810    -0.8570 ca         1 3TH      -0.074000
     19 C20          4.3650     1.7250    -1.4400 ca         1 3TH      -0.157000
     20 C21          4.1240     0.6080    -0.6480 ca         1 3TH      -0.012000
     21 N22          4.0690    -0.6640    -1.2200 ns         1 3TH      -0.151000
     22 C23          3.5370    -1.7650    -0.6300 c          1 3TH       0.548000
     23 O24          3.5270    -2.8520    -1.1730 o          1 3TH      -0.504000
     24 H3          -5.1630    -1.5220    -0.1570 ha         1 3TH       0.151000
     25 H5          -2.1530    -2.9150     0.2220 ha         1 3TH       0.160000
     26 HN7         -0.3840     0.9240     0.2590 hn         1 3TH       0.354000
     27 HN13         1.4630    -0.0090     0.5020 hn         1 3TH       0.312500
     28 H14          2.8640    -2.4630     1.2670 h1         1 3TH       0.112700
     29 H151         3.2670    -0.3020     2.4860 hc         1 3TH       0.070700
     30 H152         4.7140    -0.9730     1.7510 hc         1 3TH       0.070700
     31 H17          3.8420     2.1140     2.3610 ha         1 3TH       0.116000
     32 H18          4.2640     4.1120     0.9640 ha         1 3TH       0.121000
     33 H19          4.6110     3.8470    -1.4780 ha         1 3TH       0.119000
     34 H20          4.5000     1.6120    -2.5090 ha         1 3TH       0.122000
     35 HN22         4.3920    -0.7690    -2.1720 hn         1 3TH       0.161000
@<TRIPOS>BOND
     1     1     2 1   
     2     2     3 2   
     3     2     9 1   
     4     3     4 1   
     5     3    24 1   
     6     4     5 1   
     7     4     8 2   
     8     5     6 2   
     9     5    25 1   
    10     6     7 1   
    11     6    10 1   
    12     7     8 1   
    13     7    26 1   
    14     8     9 1   
    15    10    11 2   
    16    10    12 1   
    17    12    13 1   
    18    12    27 1   
    19    13    14 1   
    20    13    22 1   
    21    13    28 1   
    22    14    15 1   
    23    14    29 1   
    24    14    30 1   
    25    15    16 ar  
    26    15    20 ar  
    27    16    17 ar  
    28    16    31 1   
    29    17    18 ar  
    30    17    32 1   
    31    18    19 ar  
    32    18    33 1   
    33    19    20 ar  
    34    19    34 1   
    35    20    21 1   
    36    21    22 1   
    37    21    35 1   
    38    22    23 2   
@<TRIPOS>SUBSTRUCTURE
     1 3TH         1 TEMP              0 ****  ****    0 ROOT
