@<TRIPOS>MOLECULE
3TH
   35    38     1     0     0
SMALL
No Charge or Current Charge


@<TRIPOS>ATOM
      1 Cl          -6.8570     0.6850    -0.2190 cl         1 3TH      -0.146000
      2 C2          -5.1760     0.2810    -0.0490 cc         1 3TH      -0.018000
      3 C3          -4.6530    -1.0050    -0.1190 cd         1 3TH      -0.041000
      4 C4          -3.2490    -0.9710     0.0630 cd         1 3TH      -0.144000
      5 C5          -2.1990    -1.9030     0.0970 cd         1 3TH      -0.045000
      6 C6          -1.0230    -1.1890     0.3210 cc         1 3TH      -0.234600
      7 N7          -1.3900     0.1830     0.4200 na         1 3TH      -0.083000
      8 C9          -2.7620     0.2410     0.2530 cc         1 3TH      -0.204000
      9 S10         -3.9300     1.5350     0.2410 ss         1 3TH       0.193000
     10 C11          0.3000    -1.8500     0.4170 c          1 3TH       0.642700
     11 O12          0.4660    -3.0560     0.3150 o          1 3TH      -0.568100
     12 N13          1.3440    -0.9830     0.6480 ns         1 3TH      -0.513900
     13 C14          2.7830    -1.3520     0.6990 c6         1 3TH       0.043700
     14 C15          3.5690    -0.2710     1.4990 c6         1 3TH      -0.043100
     15 C16          4.0920     0.8860     0.6480 ca         1 3TH      -0.146300
     16 C17          4.3280     2.1510     1.2190 ca         1 3TH      -0.075000
     17 C18          4.8810     3.1820     0.4400 ca         1 3TH      -0.138000
     18 C19          5.2120     2.9500    -0.9060 ca         1 3TH      -0.074000
     19 C20          4.9840     1.6850    -1.4750 ca         1 3TH      -0.157000
     20 C21          4.4210     0.6580    -0.6980 ca         1 3TH      -0.012000
     21 N22          4.1570    -0.6040    -1.2600 ns         1 3TH      -0.151000
     22 C23          3.3540    -1.5980    -0.7360 c          1 3TH       0.548000
     23 O24          3.0870    -2.6030    -1.3840 o          1 3TH      -0.504000
     24 H3          -5.2390    -1.9030    -0.2880 ha         1 3TH       0.151000
     25 H5          -2.2870    -2.9790    -0.0290 ha         1 3TH       0.160000
     26 HN7         -0.7760     0.9770     0.5810 hn         1 3TH       0.354000
     27 HN13         1.1070    -0.0040     0.7230 hn         1 3TH       0.312500
     28 H14          2.8730    -2.3110     1.2290 h1         1 3TH       0.112700
     29 H151         2.9590     0.1010     2.3350 hc         1 3TH       0.070700
     30 H152         4.4370    -0.7560     1.9670 hc         1 3TH       0.070700
     31 H17          4.0930     2.3330     2.2660 ha         1 3TH       0.116000
     32 H18          5.0610     4.1600     0.8820 ha         1 3TH       0.121000
     33 H19          5.6430     3.7480    -1.5070 ha         1 3TH       0.119000
     34 H20          5.2360     1.5080    -2.5190 ha         1 3TH       0.122000
     35 HN22         4.5160    -0.7630    -2.1930 hn         1 3TH       0.161000
@<TRIPOS>BOND
     1     1     2 1   
     2     2     3 2   
     3     2     9 1   
     4     3     4 1   
     5     3    24 1   
     6     4     5 1   
     7     4     8 2   
     8     5     6 2   
     9     5    25 1   
    10     6     7 1   
    11     6    10 1   
    12     7     8 1   
    13     7    26 1   
    14     8     9 1   
    15    10    11 2   
    16    10    12 1   
    17    12    13 1   
    18    12    27 1   
    19    13    14 1   
    20    13    22 1   
    21    13    28 1   
    22    14    15 1   
    23    14    29 1   
    24    14    30 1   
    25    15    16 ar  
    26    15    20 ar  
    27    16    17 ar  
    28    16    31 1   
    29    17    18 ar  
    30    17    32 1   
    31    18    19 ar  
    32    18    33 1   
    33    19    20 ar  
    34    19    34 1   
    35    20    21 1   
    36    21    22 1   
    37    21    35 1   
    38    22    23 2   
@<TRIPOS>SUBSTRUCTURE
     1 3TH         1 TEMP              0 ****  ****    0 ROOT
