@<TRIPOS>MOLECULE
3TI
   33    35     1     0     0
SMALL
No Charge or Current Charge


@<TRIPOS>ATOM
      1 N01          1.0690    -0.7930    -0.2910 ne         1 3TI      -0.662100
      2 C02          2.3960    -0.3560    -0.1510 ca         1 3TI       0.106400
      3 C03          3.1170    -0.6460     1.0220 ca         1 3TI      -0.073500
      4 C04          4.4460    -0.2060     1.1600 ca         1 3TI      -0.168000
      5 C05          5.0580     0.5210     0.1280 ca         1 3TI       0.140100
      6 C06          4.3430     0.8100    -1.0470 ca         1 3TI      -0.168000
      7 C07          3.0130     0.3700    -1.1860 ca         1 3TI      -0.073500
      8 C08          0.0660    -0.0550     0.1110 cf         1 3TI       0.543800
      9 C09         -1.3450    -0.5160     0.0310 ca         1 3TI      -0.309900
     10 C10         -1.6500    -1.8830    -0.1850 ca         1 3TI       0.240100
     11 C11         -2.9750    -2.3300    -0.2380 ca         1 3TI      -0.162000
     12 C12         -4.0320    -1.4280    -0.0950 ca         1 3TI      -0.035000
     13 C13         -3.7650    -0.0620     0.0880 ca         1 3TI      -0.090000
     14 C14         -2.4260     0.4090     0.1430 ca         1 3TI       0.046000
     15 C15         -2.2180     1.8030     0.2960 ca         1 3TI      -0.129000
     16 C16         -3.3030     2.6880     0.4130 ca         1 3TI      -0.085000
     17 C17         -4.6170     2.2030     0.3750 ca         1 3TI      -0.130000
     18 C18         -4.8470     0.8310     0.2090 ca         1 3TI      -0.074000
     19 O19          6.3460     0.9420     0.2720 oh         1 3TI      -0.530100
     20 O20         -0.6630    -2.8050    -0.3330 oh         1 3TI      -0.554100
     21 H03          2.6460    -1.2100     1.8230 ha         1 3TI       0.121000
     22 H04          5.0000    -0.4300     2.0690 ha         1 3TI       0.123500
     23 H06          4.8090     1.3720    -1.8540 ha         1 3TI       0.123500
     24 H07          2.4610     0.5930    -2.0950 ha         1 3TI       0.121000
     25 H08          0.2650     0.8680     0.6590 h4         1 3TI      -0.018200
     26 H11         -3.1820    -3.3860    -0.3930 ha         1 3TI       0.133000
     27 H12         -5.0580    -1.7890    -0.1370 ha         1 3TI       0.116000
     28 H15         -1.2250     2.2370     0.3150 ha         1 3TI       0.108000
     29 H16         -3.1230     3.7550     0.5310 ha         1 3TI       0.111000
     30 H17         -5.4550     2.8900     0.4650 ha         1 3TI       0.115000
     31 H18         -5.8700     0.4630     0.1710 ha         1 3TI       0.112000
     32 HO19         6.6070     1.4280    -0.5400 ho         1 3TI       0.466000
     33 HO20         0.1790    -2.2760    -0.3630 ho         1 3TI       0.535000
@<TRIPOS>BOND
     1     1     2 1   
     2     1     8 2   
     3     2     3 ar  
     4     2     7 ar  
     5     3     4 ar  
     6     3    21 1   
     7     4     5 ar  
     8     4    22 1   
     9     5     6 ar  
    10     5    19 1   
    11     6     7 ar  
    12     6    23 1   
    13     7    24 1   
    14     8     9 1   
    15     8    25 1   
    16     9    10 ar  
    17     9    14 ar  
    18    10    11 ar  
    19    10    20 1   
    20    11    12 ar  
    21    11    26 1   
    22    12    13 ar  
    23    12    27 1   
    24    13    14 ar  
    25    13    18 ar  
    26    14    15 ar  
    27    15    16 ar  
    28    15    28 1   
    29    16    17 ar  
    30    16    29 1   
    31    17    18 ar  
    32    17    30 1   
    33    18    31 1   
    34    19    32 1   
    35    20    33 1   
@<TRIPOS>SUBSTRUCTURE
     1 3TI         1 TEMP              0 ****  ****    0 ROOT
