@<TRIPOS>MOLECULE
3TI
   33    35     1     0     0
SMALL
abcg2


@<TRIPOS>ATOM
      1 N01          1.0360    -0.7970     0.0930 ne         1 3TI      -0.662100
      2 C02          2.3600    -0.3550     0.0490 ca         1 3TI       0.106400
      3 C03          3.3330    -1.1710     0.6260 ca         1 3TI      -0.073500
      4 C04          4.6650    -0.8020     0.6340 ca         1 3TI      -0.168000
      5 C05          5.0610     0.3950     0.0390 ca         1 3TI       0.140100
      6 C06          4.1020     1.2040    -0.5660 ca         1 3TI      -0.168000
      7 C07          2.7680     0.8320    -0.5610 ca         1 3TI      -0.073500
      8 C08          0.0450     0.0170     0.0720 cf         1 3TI       0.543800
      9 C09         -1.3230    -0.4520     0.0750 ca         1 3TI      -0.309900
     10 C10         -1.5800    -1.8270     0.0900 ca         1 3TI       0.240100
     11 C11         -2.9100    -2.3110     0.0860 ca         1 3TI      -0.162000
     12 C12         -3.9550    -1.4400     0.0710 ca         1 3TI      -0.035000
     13 C13         -3.7500    -0.0370     0.0610 ca         1 3TI      -0.090000
     14 C14         -2.4250     0.4690     0.0630 ca         1 3TI       0.046000
     15 C15         -2.2660     1.8750     0.0530 ca         1 3TI      -0.129000
     16 C16         -3.3510     2.7130     0.0420 ca         1 3TI      -0.085000
     17 C17         -4.6600     2.2030     0.0390 ca         1 3TI      -0.130000
     18 C18         -4.8500     0.8470     0.0490 ca         1 3TI      -0.074000
     19 O19          6.3700     0.7100     0.0630 oh         1 3TI      -0.530100
     20 O20         -0.6120    -2.7300     0.1090 oh         1 3TI      -0.554100
     21 H03          3.0330    -2.1040     1.0850 ha         1 3TI       0.121000
     22 H04          5.4050    -1.4440     1.0960 ha         1 3TI       0.123500
     23 H06          4.3950     2.1260    -1.0550 ha         1 3TI       0.123500
     24 H07          2.0520     1.4700    -1.0660 ha         1 3TI       0.121000
     25 H08          0.2150     1.0930     0.0610 h4         1 3TI      -0.018200
     26 H11         -3.0740    -3.3800     0.0950 ha         1 3TI       0.133000
     27 H12         -4.9690    -1.8200     0.0690 ha         1 3TI       0.116000
     28 H15         -1.2810     2.3190     0.0550 ha         1 3TI       0.108000
     29 H16         -3.1940     3.7840     0.0350 ha         1 3TI       0.111000
     30 H17         -5.5050     2.8780     0.0290 ha         1 3TI       0.115000
     31 H18         -5.8510     0.4340     0.0470 ha         1 3TI       0.112000
     32 HO19         6.5230     1.5510    -0.3820 ho         1 3TI       0.466000
     33 HO20         0.2610    -2.2370     0.1160 ho         1 3TI       0.535000
@<TRIPOS>BOND
     1     1     2 1   
     2     1     8 2   
     3     2     3 ar  
     4     2     7 ar  
     5     3     4 ar  
     6     3    21 1   
     7     4     5 ar  
     8     4    22 1   
     9     5     6 ar  
    10     5    19 1   
    11     6     7 ar  
    12     6    23 1   
    13     7    24 1   
    14     8     9 1   
    15     8    25 1   
    16     9    10 ar  
    17     9    14 ar  
    18    10    11 ar  
    19    10    20 1   
    20    11    12 ar  
    21    11    26 1   
    22    12    13 ar  
    23    12    27 1   
    24    13    14 ar  
    25    13    18 ar  
    26    14    15 ar  
    27    15    16 ar  
    28    15    28 1   
    29    16    17 ar  
    30    16    29 1   
    31    17    18 ar  
    32    17    30 1   
    33    18    31 1   
    34    19    32 1   
    35    20    33 1   
@<TRIPOS>SUBSTRUCTURE
     1 3TI         1 TEMP              0 ****  ****    0 ROOT
