@<TRIPOS>MOLECULE
3TJ
   26    27     1     0     0
SMALL
abcg2


@<TRIPOS>ATOM
      1 CAA         76.2580    21.1310    27.3970 c3         1 3TJ      -0.119100
      2 OAB         73.5630    16.6210    30.5040 o          1 3TJ      -0.533000
      3 OAC         75.7300    16.8470    31.6870 o          1 3TJ      -0.533000
      4 CAE         77.1860    16.5680    26.7510 ca         1 3TJ      -0.049000
      5 CAF         76.4670    17.7370    26.9080 ca         1 3TJ      -0.178000
      6 CAG         76.4590    15.7990    28.9100 ca         1 3TJ      -0.002000
      7 CAH         75.0400    20.2280    27.2290 c3         1 3TJ       0.233800
      8 CAI         74.1210    19.3600    29.3660 c6         1 3TJ       0.466000
      9 NAJ         74.6850    18.8490    30.6100 n7         1 3TJ      -0.844300
     10 CAK         77.1730    15.6100    27.7530 ca         1 3TJ       0.100000
     11 CAL         75.6950    17.9870    28.0660 ca         1 3TJ       0.410000
     12 CAM         75.7260    16.9770    29.0620 ca         1 3TJ      -0.379500
     13 NAN         74.9880    19.1520    28.2160 nh         1 3TJ      -0.875400
     14 SAO         74.8790    17.2130    30.5810 sy         1 3TJ       1.176600
     15 HAA         76.2500    21.9190    26.6420 hc         1 3TJ       0.047367
     16 HAAA        76.2540    21.5970    28.3840 hc         1 3TJ       0.047367
     17 HAE         77.7660    16.4010    25.8520 ha         1 3TJ       0.133000
     18 HAF         76.5080    18.4710    26.1190 ha         1 3TJ       0.120000
     19 HAG         76.4750    15.0550    29.6950 ha         1 3TJ       0.147000
     20 HAH         74.1250    20.8090    27.3450 h1         1 3TJ       0.054700
     21 HAI         73.1510    18.8760    29.2230 h2         1 3TJ       0.086700
     22 HAIA        73.9590    20.4270    29.4880 h2         1 3TJ       0.086700
     23 HNAJ        75.5550    19.3050    30.8760 hn         1 3TJ       0.481000
     24 H10         77.1840    20.5640    27.2900 hc         1 3TJ       0.047367
     25 H11         75.0030    19.8050    26.2250 h1         1 3TJ       0.054700
     26 FAD         77.8940    14.4690    27.5910 f          1 3TJ      -0.180000
@<TRIPOS>BOND
     1     1     7 1   
     2     1    15 1   
     3     1    16 1   
     4     1    24 1   
     5     2    14 2   
     6     3    14 2   
     7     4     5 ar  
     8     4    10 ar  
     9     4    17 1   
    10     5    11 ar  
    11     5    18 1   
    12     6    10 ar  
    13     6    12 ar  
    14     6    19 1   
    15     7    13 1   
    16     7    20 1   
    17     7    25 1   
    18     8     9 1   
    19     8    13 1   
    20     8    21 1   
    21     8    22 1   
    22     9    14 1   
    23     9    23 1   
    24    10    26 1   
    25    11    12 ar  
    26    11    13 1   
    27    12    14 1   
@<TRIPOS>SUBSTRUCTURE
     1 3TJ         1 TEMP              0 ****  ****    0 ROOT
