@<TRIPOS>MOLECULE
3TJ
   26    27     1     0     0
SMALL
No Charge or Current Charge


@<TRIPOS>ATOM
      1 CAA         76.5020    21.0320    27.6310 c3         1 3TJ      -0.119100
      2 OAB         73.8410    16.5750    30.8210 o          1 3TJ      -0.533000
      3 OAC         76.0340    17.5500    31.6810 o          1 3TJ      -0.533000
      4 CAE         77.0650    16.5000    26.6690 ca         1 3TJ      -0.049000
      5 CAF         76.3290    17.6890    26.8290 ca         1 3TJ      -0.178000
      6 CAG         76.5280    15.8710    28.9550 ca         1 3TJ      -0.002000
      7 CAH         75.1270    20.3760    27.4300 c3         1 3TJ       0.233800
      8 CAI         73.7990    19.0990    29.1430 c6         1 3TJ       0.466000
      9 NAJ         74.4330    18.9760    30.4080 n7         1 3TJ      -0.844300
     10 CAK         77.1620    15.5930    27.7340 ca         1 3TJ       0.100000
     11 CAL         75.6880    17.9780    28.0510 ca         1 3TJ       0.410000
     12 CAM         75.7930    17.0670    29.1010 ca         1 3TJ      -0.379500
     13 NAN         74.9440    19.1550    28.2510 nh         1 3TJ      -0.875400
     14 SAO         75.0080    17.4420    30.6420 sy         1 3TJ       1.176600
     15 HAA         76.5820    21.9390    27.0200 hc         1 3TJ       0.047367
     16 HAAA        76.6440    21.3110    28.6820 hc         1 3TJ       0.047367
     17 HAE         77.5550    16.2810    25.7240 ha         1 3TJ       0.133000
     18 HAF         76.2570    18.3760    25.9930 ha         1 3TJ       0.120000
     19 HAG         76.6130    15.1630    29.7770 ha         1 3TJ       0.147000
     20 HAH         74.3610    21.1220    27.6830 h1         1 3TJ       0.054700
     21 HAI         73.1340    18.2460    28.9200 h2         1 3TJ       0.086700
     22 HAIA        73.2230    20.0380    29.1050 h2         1 3TJ       0.086700
     23 HNAJ        75.3080    19.4530    30.2270 hn         1 3TJ       0.481000
     24 H10         77.3100    20.3510    27.3400 hc         1 3TJ       0.047367
     25 H11         74.9840    20.1440    26.3670 h1         1 3TJ       0.054700
     26 FAD         77.8690    14.4500    27.5850 f          1 3TJ      -0.180000
@<TRIPOS>BOND
     1     1     7 1   
     2     1    15 1   
     3     1    16 1   
     4     1    24 1   
     5     2    14 2   
     6     3    14 2   
     7     4     5 ar  
     8     4    10 ar  
     9     4    17 1   
    10     5    11 ar  
    11     5    18 1   
    12     6    10 ar  
    13     6    12 ar  
    14     6    19 1   
    15     7    13 1   
    16     7    20 1   
    17     7    25 1   
    18     8     9 1   
    19     8    13 1   
    20     8    21 1   
    21     8    22 1   
    22     9    14 1   
    23     9    23 1   
    24    10    26 1   
    25    11    12 ar  
    26    11    13 1   
    27    12    14 1   
@<TRIPOS>SUBSTRUCTURE
     1 3TJ         1 TEMP              0 ****  ****    0 ROOT
