@<TRIPOS>MOLECULE
3TK
   43    45     1     0     0
SMALL
No Charge or Current Charge


@<TRIPOS>ATOM
      1 C            0.8510    -0.6400     0.0580 c          1 3TK       0.619100
      2 N           -0.1030     0.2760    -0.3250 ns         1 3TK      -0.483400
      3 O            0.6020    -1.7860     0.4040 o          1 3TK      -0.505100
      4 S           -2.4750     1.4630    -0.9230 ss         1 3TK      -0.095400
      5 C1          -1.4680     0.1350    -0.4040 cc         1 3TK       0.575300
      6 N1          -2.1020    -0.9850    -0.1020 nd         1 3TK      -0.648000
      7 S1           3.5880    -1.3070     0.5260 ss         1 3TK      -0.208300
      8 C2          -3.4690    -0.8230    -0.2770 cd         1 3TK       0.301900
      9 N2           6.2510    -1.0850     0.7040 nb         1 3TK      -0.195500
     10 C3          -3.8540     0.4250    -0.7130 cc         1 3TK      -0.223300
     11 N3           5.0800     0.8770    -0.0410 nb         1 3TK      -0.195500
     12 C4          -5.2510     0.9130    -0.9950 c3         1 3TK       0.048200
     13 C5          -6.2830     0.3140    -0.0480 ca         1 3TK      -0.089300
     14 C6          -7.1060    -0.7500    -0.4670 ca         1 3TK      -0.100500
     15 C7          -8.0500    -1.3050     0.4160 ca         1 3TK      -0.109000
     16 C8          -8.1740    -0.8010     1.7210 ca         1 3TK      -0.107000
     17 C9          -7.3540     0.2580     2.1450 ca         1 3TK      -0.109000
     18 C10         -6.4110     0.8140     1.2630 ca         1 3TK      -0.100500
     19 C11          2.2820    -0.0830     0.0100 c3         1 3TK      -0.083400
     20 C12          5.1290    -0.4070     0.3790 ca         1 3TK       0.222300
     21 C13          7.4210    -0.4250     0.6000 ca         1 3TK       0.144800
     22 C14          8.6810    -1.1900     0.9590 c3         1 3TK      -0.151400
     23 C15          7.4680     0.9120     0.1700 ca         1 3TK      -0.231000
     24 C16          6.2500     1.5370    -0.1440 ca         1 3TK       0.144800
     25 C17          6.1920     2.9760    -0.6220 c3         1 3TK      -0.151400
     26 HN           0.2630     1.1810    -0.5830 hn         1 3TK       0.331500
     27 H2          -4.1350    -1.6520    -0.0710 h4         1 3TK       0.044100
     28 H4          -5.2810     2.0080    -0.9230 hc         1 3TK       0.061200
     29 H4A         -5.5100     0.6810    -2.0350 hc         1 3TK       0.061200
     30 H6          -7.0150    -1.1500    -1.4740 ha         1 3TK       0.113000
     31 H7          -8.6830    -2.1270     0.0870 ha         1 3TK       0.113500
     32 H8          -8.9040    -1.2310     2.4040 ha         1 3TK       0.113000
     33 H9          -7.4480     0.6480     3.1560 ha         1 3TK       0.113500
     34 H10         -5.7760     1.6310     1.5990 ha         1 3TK       0.113000
     35 H11          2.4810     0.2460    -1.0170 h1         1 3TK       0.094200
     36 H11A         2.3250     0.7910     0.6710 h1         1 3TK       0.094200
     37 H14          9.0140    -1.8080     0.1170 hc         1 3TK       0.057200
     38 H14A         9.5000    -0.5100     1.2210 hc         1 3TK       0.057200
     39 H14B         8.5150    -1.8520     1.8180 hc         1 3TK       0.057200
     40 H15          8.4120     1.4420     0.0810 ha         1 3TK       0.133000
     41 H17          6.1170     3.0200    -1.7150 hc         1 3TK       0.057200
     42 H17A         5.3250     3.5000    -0.2040 hc         1 3TK       0.057200
     43 H17B         7.0890     3.5310    -0.3250 hc         1 3TK       0.057200
@<TRIPOS>BOND
     1     1     2 1   
     2     1     3 2   
     3     1    19 1   
     4     2     5 1   
     5     2    26 1   
     6     4     5 1   
     7     4    10 1   
     8     5     6 2   
     9     6     8 1   
    10     7    19 1   
    11     7    20 1   
    12     8    10 2   
    13     8    27 1   
    14     9    20 ar  
    15     9    21 ar  
    16    10    12 1   
    17    11    20 ar  
    18    11    24 ar  
    19    12    13 1   
    20    12    28 1   
    21    12    29 1   
    22    13    14 ar  
    23    13    18 ar  
    24    14    15 ar  
    25    14    30 1   
    26    15    16 ar  
    27    15    31 1   
    28    16    17 ar  
    29    16    32 1   
    30    17    18 ar  
    31    17    33 1   
    32    18    34 1   
    33    19    35 1   
    34    19    36 1   
    35    21    22 1   
    36    21    23 ar  
    37    22    37 1   
    38    22    38 1   
    39    22    39 1   
    40    23    24 ar  
    41    23    40 1   
    42    24    25 1   
    43    25    41 1   
    44    25    42 1   
    45    25    43 1   
@<TRIPOS>SUBSTRUCTURE
     1 3TK         1 TEMP              0 ****  ****    0 ROOT
