@<TRIPOS>MOLECULE
3TK
   43    45     1     0     0
SMALL
bcc


@<TRIPOS>ATOM
      1 C            0.8590    -0.8980    -0.7700 c          1 3TK       0.686100
      2 N           -0.2360    -0.0800    -0.7370 ns         1 3TK      -0.550400
      3 O            0.8320    -2.0700    -1.0650 o          1 3TK      -0.505100
      4 S           -2.8080     0.6980    -0.7070 ss         1 3TK      -0.240300
      5 C1          -1.5320    -0.4310    -1.0540 cc         1 3TK       0.575300
      6 N1          -1.9130    -1.5350    -1.5950 nd         1 3TK      -0.648000
      7 S1           3.4730    -1.3820    -0.3970 ss         1 3TK      -0.160400
      8 C2          -3.2710    -1.5390    -1.7670 cd         1 3TK       0.367200
      9 N2           5.9640    -1.0560     0.1780 nb         1 3TK      -0.721500
     10 C3          -3.9430    -0.4330    -1.3670 cc         1 3TK      -0.143700
     11 N3           4.6540     0.9140     0.2920 nb         1 3TK      -0.721500
     12 C4          -5.4050    -0.1380    -1.4270 c3         1 3TK       0.048200
     13 C5          -5.9910     0.1460    -0.0660 ca         1 3TK      -0.089300
     14 C6          -6.1250    -0.8800     0.8670 ca         1 3TK      -0.118500
     15 C7          -6.6460    -0.6270     2.1270 ca         1 3TK      -0.127000
     16 C8          -7.0350     0.6620     2.4740 ca         1 3TK      -0.125000
     17 C9          -6.9020     1.6910     1.5520 ca         1 3TK      -0.127000
     18 C10         -6.3830     1.4320     0.2880 ca         1 3TK      -0.118500
     19 C11          2.1320    -0.1730    -0.3960 c3         1 3TK      -0.131300
     20 C12          4.8320    -0.3740     0.0780 ca         1 3TK       0.748300
     21 C13          7.0430    -0.3680     0.5390 ca         1 3TK       0.473100
     22 C14          8.3310    -1.1170     0.6430 c3         1 3TK      -0.151400
     23 C15          6.9650     0.9970     0.7930 ca         1 3TK      -0.379600
     24 C16          5.7310     1.6150     0.6550 ca         1 3TK       0.473100
     25 C17          5.5420     3.0760     0.8960 c3         1 3TK      -0.151400
     26 HN          -0.0850     0.8720    -0.4370 hn         1 3TK       0.331500
     27 H2          -3.7460    -2.4030    -2.2100 h4         1 3TK       0.044100
     28 H4          -5.5900     0.7070    -2.0940 hc         1 3TK       0.061200
     29 H4A         -5.8970    -1.0040    -1.8760 hc         1 3TK       0.061200
     30 H6          -5.8200    -1.8860     0.6010 ha         1 3TK       0.131000
     31 H7          -6.7500    -1.4350     2.8390 ha         1 3TK       0.131500
     32 H8          -7.4420     0.8620     3.4560 ha         1 3TK       0.131000
     33 H9          -7.2020     2.6970     1.8150 ha         1 3TK       0.131500
     34 H10         -6.2860     2.2390    -0.4280 ha         1 3TK       0.131000
     35 H11          2.3310     0.6240    -1.1160 h1         1 3TK       0.094200
     36 H11A         2.0360     0.2910     0.5870 h1         1 3TK       0.094200
     37 H14          8.6880    -1.3890    -0.3520 hc         1 3TK       0.057200
     38 H14A         9.1030    -0.5230     1.1280 hc         1 3TK       0.057200
     39 H14B         8.1940    -2.0420     1.2020 hc         1 3TK       0.057200
     40 H15          7.8400     1.5580     1.0900 ha         1 3TK       0.151000
     41 H17          5.1940     3.5670    -0.0140 hc         1 3TK       0.057200
     42 H17A         4.7830     3.2400     1.6620 hc         1 3TK       0.057200
     43 H17B         6.4650     3.5540     1.2130 hc         1 3TK       0.057200
@<TRIPOS>BOND
     1     1     2 1   
     2     1     3 2   
     3     1    19 1   
     4     2     5 1   
     5     2    26 1   
     6     4     5 1   
     7     4    10 1   
     8     5     6 2   
     9     6     8 1   
    10     7    19 1   
    11     7    20 1   
    12     8    10 2   
    13     8    27 1   
    14     9    20 ar  
    15     9    21 ar  
    16    10    12 1   
    17    11    20 ar  
    18    11    24 ar  
    19    12    13 1   
    20    12    28 1   
    21    12    29 1   
    22    13    14 ar  
    23    13    18 ar  
    24    14    15 ar  
    25    14    30 1   
    26    15    16 ar  
    27    15    31 1   
    28    16    17 ar  
    29    16    32 1   
    30    17    18 ar  
    31    17    33 1   
    32    18    34 1   
    33    19    35 1   
    34    19    36 1   
    35    21    22 1   
    36    21    23 ar  
    37    22    37 1   
    38    22    38 1   
    39    22    39 1   
    40    23    24 ar  
    41    23    40 1   
    42    24    25 1   
    43    25    41 1   
    44    25    42 1   
    45    25    43 1   
@<TRIPOS>SUBSTRUCTURE
     1 3TK         1 TEMP              0 ****  ****    0 ROOT
