@<TRIPOS>MOLECULE
3TL
  130   133     1     0     0
SMALL
bcc


@<TRIPOS>ATOM
      1 C31         10.3590    -0.0760    -0.7580 c          1 3TL       0.756100
      2 O8          10.5210    -1.0450    -1.4740 o          1 3TL      -0.601500
      3 O9          11.3130     0.8220    -0.4880 os         1 3TL      -0.431400
      4 CA          12.5870     0.6250    -1.1140 c3         1 3TL       0.208700
      5 C           13.4520     1.7800    -0.7110 ca         1 3TL      -0.101300
      6 C13         14.3550     1.6560     0.3410 ca         1 3TL      -0.101750
      7 C14         15.1390     2.7350     0.7270 ca         1 3TL      -0.133750
      8 C15         15.0230     3.9500     0.0660 ca         1 3TL      -0.115500
      9 C16         14.1220     4.0820    -0.9840 ca         1 3TL      -0.133750
     10 C17         13.3420     3.0020    -1.3690 ca         1 3TL      -0.101750
     11 N4           9.2100     0.2490    -0.1440 ns         1 3TL      -0.560400
     12 C18          8.0440    -0.5970    -0.1940 c3         1 3TL       0.052700
     13 C19          6.8210     0.2680     0.0850 c          1 3TL       0.661100
     14 O4           6.8880     1.2480     0.8130 o          1 3TL      -0.612600
     15 C20          8.0950    -1.7250     0.8400 c3         1 3TL      -0.116600
     16 N2           5.6870    -0.1730    -0.4710 ns         1 3TL      -0.558900
     17 C10          4.3900     0.3860    -0.1690 c3         1 3TL       0.037700
     18 C11          3.3930    -0.7700    -0.1720 c          1 3TL       0.668600
     19 O2           3.4800    -1.6800    -0.9820 o          1 3TL      -0.603600
     20 C12          4.0030     1.5270    -1.1350 c3         1 3TL      -0.066200
     21 CG2          3.8310     1.0650    -2.5770 c3         1 3TL      -0.091350
     22 CG1          2.7670     2.2760    -0.6480 c3         1 3TL      -0.091350
     23 C2           0.0790    -1.4210     0.6660 c3         1 3TL       0.110100
     24 O1          -0.3340    -0.1990     1.2300 oh         1 3TL      -0.584800
     25 C1           1.5160    -1.7680     1.0810 c3         1 3TL       0.077700
     26 N1           2.4480    -0.7000     0.7780 ns         1 3TL      -0.561900
     27 C3           1.6170    -2.1050     2.5750 c3         1 3TL      -0.048100
     28 C4           3.0120    -2.5250     2.9440 ca         1 3TL      -0.086800
     29 C5           3.9060    -1.6320     3.5300 ca         1 3TL      -0.125000
     30 C9           3.4610    -3.8090     2.6400 ca         1 3TL      -0.125000
     31 C6           5.2170    -2.0050     3.7960 ca         1 3TL      -0.123250
     32 C8           4.7690    -4.1880     2.9080 ca         1 3TL      -0.123250
     33 C7           5.6530    -3.2850     3.4850 ca         1 3TL      -0.127500
     34 N51         -2.4780    -0.6750    -1.0030 ns         1 3TL      -0.561900
     35 C51         -1.5820    -1.7880    -1.2500 c3         1 3TL       0.077700
     36 C52         -0.1310    -1.4720    -0.8610 c3         1 3TL       0.110100
     37 O51          0.3350    -0.3120    -1.5100 oh         1 3TL      -0.584800
     38 C54         -3.1300    -2.5550    -3.0630 ca         1 3TL      -0.086800
     39 C55         -3.9570    -1.6460    -3.7180 ca         1 3TL      -0.125000
     40 C59         -3.6730    -3.7710    -2.6550 ca         1 3TL      -0.125000
     41 C56         -5.2960    -1.9360    -3.9490 ca         1 3TL      -0.123250
     42 C58         -5.0090    -4.0680    -2.8860 ca         1 3TL      -0.123250
     43 C57         -5.8270    -3.1480    -3.5300 ca         1 3TL      -0.127500
     44 N52         -5.6060     0.0280     0.4660 ns         1 3TL      -0.558900
     45 C60         -4.3500     0.5270    -0.0440 c3         1 3TL       0.037700
     46 C61         -3.3610    -0.6360     0.0090 c          1 3TL       0.668600
     47 O52         -3.3990    -1.4590     0.9080 o          1 3TL      -0.603600
     48 C62         -3.8590     1.7780     0.7180 c3         1 3TL      -0.066200
     49 CG6         -3.5760     1.5100     2.1920 c3         1 3TL      -0.091350
     50 CG5         -2.6580     2.4170     0.0310 c3         1 3TL      -0.091350
     51 N54         -9.1550     0.3680     0.4420 ns         1 3TL      -0.560400
     52 C68         -7.9660    -0.4450     0.4800 c3         1 3TL       0.052700
     53 O54         -6.9530     1.2830    -0.8460 o          1 3TL      -0.612600
     54 C70         -8.0880    -1.6980    -0.3920 c3         1 3TL      -0.116600
     55 O58        -10.2860    -0.7840     2.0410 o          1 3TL      -0.601500
     56 O59        -11.2470     0.9080     0.9030 os         1 3TL      -0.431400
     57 CA5        -12.4590     0.7310     1.6460 c3         1 3TL       0.208700
     58 C50        -13.4540     1.7040     1.0930 ca         1 3TL      -0.101300
     59 C63        -14.2530     1.3550     0.0070 ca         1 3TL      -0.101750
     60 C64        -15.1550     2.2650    -0.5260 ca         1 3TL      -0.133750
     61 C65        -15.2660     3.5370     0.0230 ca         1 3TL      -0.115500
     62 C66        -14.4730     3.8930     1.1060 ca         1 3TL      -0.133750
     63 C67        -13.5720     2.9800     1.6360 ca         1 3TL      -0.101750
     64 HA1         13.0250    -0.3210    -0.7890 h1         1 3TL       0.055700
     65 HA2         12.4700     0.5890    -2.1990 h1         1 3TL       0.055700
     66 H13         14.4490     0.7090     0.8590 ha         1 3TL       0.132750
     67 H14         15.8400     2.6270     1.5440 ha         1 3TL       0.132000
     68 H15         15.6360     4.7910     0.3640 ha         1 3TL       0.131000
     69 H16         14.0300     5.0270    -1.5050 ha         1 3TL       0.132000
     70 H17         12.6450     3.1070    -2.1920 ha         1 3TL       0.132750
     71 HN4          9.1900     1.0340     0.4910 hn         1 3TL       0.350000
     72 H18          7.9690    -1.0290    -1.1940 h1         1 3TL       0.086200
     73 H201         7.2050    -2.3530     0.7850 hc         1 3TL       0.052367
     74 H202         8.9640    -2.3570     0.6650 hc         1 3TL       0.052367
     75 H203         8.1620    -1.3190     1.8490 hc         1 3TL       0.052367
     76 HN2          5.7160    -0.9730    -1.0860 hn         1 3TL       0.341500
     77 H10          4.4430     0.8140     0.8350 h1         1 3TL       0.075700
     78 H12          4.8470     2.2230    -1.0950 hc         1 3TL       0.065700
     79 HG21         2.9610     0.4170    -2.6880 hc         1 3TL       0.039117
     80 HG22         3.6850     1.9290    -3.2260 hc         1 3TL       0.039117
     81 HG23         4.7060     0.5280    -2.9440 hc         1 3TL       0.039117
     82 HG11         2.8860     2.6340     0.3770 hc         1 3TL       0.039117
     83 HG12         2.5780     3.1460    -1.2790 hc         1 3TL       0.039117
     84 HG13         1.8760     1.6480    -0.6880 hc         1 3TL       0.039117
     85 H2          -0.5620    -2.1920     1.1030 h1         1 3TL       0.089700
     86 HO1          0.2810     0.4870     0.9470 ho         1 3TL       0.401500
     87 H1           1.8280    -2.6460     0.5130 h1         1 3TL       0.085200
     88 HN1          2.5410     0.0360     1.4610 hn         1 3TL       0.312500
     89 H31          1.3040    -1.2430     3.1700 hc         1 3TL       0.062700
     90 H32          0.9070    -2.9080     2.7900 hc         1 3TL       0.062700
     91 H5           3.5760    -0.6300     3.7820 ha         1 3TL       0.127500
     92 H9           2.7800    -4.5200     2.1870 ha         1 3TL       0.127500
     93 H6           5.8970    -1.2940     4.2480 ha         1 3TL       0.134250
     94 H8           5.0970    -5.1910     2.6660 ha         1 3TL       0.134250
     95 H7           6.6740    -3.5770     3.6920 ha         1 3TL       0.132500
     96 HN51        -2.6200    -0.0220    -1.7580 hn         1 3TL       0.312500
     97 H51         -1.9180    -2.6240    -0.6330 h1         1 3TL       0.085200
     98 H52          0.4750    -2.3000    -1.2420 h1         1 3TL       0.089700
     99 HO51        -0.3010     0.3970    -1.3640 ho         1 3TL       0.401500
    100 H531        -1.3480    -1.3990    -3.3670 hc         1 3TL       0.062700
    101 H532        -1.0490    -3.0600    -2.8890 hc         1 3TL       0.062700
    102 H55         -3.5520    -0.6970    -4.0530 ha         1 3TL       0.127500
    103 H59         -3.0460    -4.4940    -2.1450 ha         1 3TL       0.127500
    104 H56         -5.9220    -1.2130    -4.4550 ha         1 3TL       0.134250
    105 H58         -5.4120    -5.0180    -2.5610 ha         1 3TL       0.134250
    106 H57         -6.8700    -3.3750    -3.7070 ha         1 3TL       0.132500
    107 HN52        -5.5580    -0.7020     1.1610 hn         1 3TL       0.341500
    108 H60         -4.5110     0.8200    -1.0850 h1         1 3TL       0.075700
    109 H62         -4.6910     2.4860     0.6530 hc         1 3TL       0.065700
    110 HG61        -2.7230     0.8440     2.3230 hc         1 3TL       0.039117
    111 HG62        -3.3440     2.4470     2.7000 hc         1 3TL       0.039117
    112 HG63        -4.4340     1.0690     2.7000 hc         1 3TL       0.039117
    113 HG51        -2.8540     2.6220    -1.0230 hc         1 3TL       0.039117
    114 HG52        -2.4090     3.3650     0.5090 hc         1 3TL       0.039117
    115 HG53        -1.7730     1.7820     0.0940 hc         1 3TL       0.039117
    116 HN54        -9.2260     1.0570    -0.2910 hn         1 3TL       0.350000
    117 H68         -7.7810    -0.7450     1.5140 h1         1 3TL       0.086200
    118 H701        -8.2600    -1.4280    -1.4340 hc         1 3TL       0.052367
    119 H702        -7.1860    -2.3080    -0.3430 hc         1 3TL       0.052367
    120 H703        -8.9230    -2.3090    -0.0510 hc         1 3TL       0.052367
    121 HA51       -12.8180    -0.2950     1.5400 h1         1 3TL       0.055700
    122 HA52       -12.2800     0.9200     2.7070 h1         1 3TL       0.055700
    123 H63        -14.1760     0.3620    -0.4200 ha         1 3TL       0.132750
    124 H64        -15.7740     1.9820    -1.3680 ha         1 3TL       0.132000
    125 H65        -15.9710     4.2460    -0.3910 ha         1 3TL       0.131000
    126 H66        -14.5570     4.8810     1.5380 ha         1 3TL       0.132000
    127 H67        -12.9590     3.2610     2.4850 ha         1 3TL       0.132750
    128 C53         -1.7080    -2.2050    -2.7230 c3         1 3TL      -0.048100
    129 C69         -6.7970     0.3950    -0.0210 c          1 3TL       0.661100
    130 C81        -10.2330     0.0870     1.1950 c          1 3TL       0.756100
@<TRIPOS>BOND
     1     1     2 2   
     2     1     3 1   
     3     1    11 1   
     4     3     4 1   
     5     4     5 1   
     6     4    64 1   
     7     4    65 1   
     8     5     6 ar  
     9     5    10 ar  
    10     6     7 ar  
    11     6    66 1   
    12     7     8 ar  
    13     7    67 1   
    14     8     9 ar  
    15     8    68 1   
    16     9    10 ar  
    17     9    69 1   
    18    10    70 1   
    19    11    12 1   
    20    11    71 1   
    21    12    13 1   
    22    12    15 1   
    23    12    72 1   
    24    13    14 2   
    25    13    16 1   
    26    15    73 1   
    27    15    74 1   
    28    15    75 1   
    29    16    17 1   
    30    16    76 1   
    31    17    18 1   
    32    17    20 1   
    33    17    77 1   
    34    18    19 2   
    35    18    26 1   
    36    20    21 1   
    37    20    22 1   
    38    20    78 1   
    39    21    79 1   
    40    21    80 1   
    41    21    81 1   
    42    22    82 1   
    43    22    83 1   
    44    22    84 1   
    45    23    24 1   
    46    23    25 1   
    47    23    36 1   
    48    23    85 1   
    49    24    86 1   
    50    25    26 1   
    51    25    27 1   
    52    25    87 1   
    53    26    88 1   
    54    27    28 1   
    55    27    89 1   
    56    27    90 1   
    57    28    29 ar  
    58    28    30 ar  
    59    29    31 ar  
    60    29    91 1   
    61    30    32 ar  
    62    30    92 1   
    63    31    33 ar  
    64    31    93 1   
    65    32    33 ar  
    66    32    94 1   
    67    33    95 1   
    68    34    35 1   
    69    34    46 1   
    70    34    96 1   
    71    35    36 1   
    72    35    97 1   
    73    35   128 1   
    74    36    37 1   
    75    36    98 1   
    76    37    99 1   
    77    38    39 ar  
    78    38    40 ar  
    79    38   128 1   
    80    39    41 ar  
    81    39   102 1   
    82    40    42 ar  
    83    40   103 1   
    84    41    43 ar  
    85    41   104 1   
    86    42    43 ar  
    87    42   105 1   
    88    43   106 1   
    89    44    45 1   
    90    44   107 1   
    91    44   129 1   
    92    45    46 1   
    93    45    48 1   
    94    45   108 1   
    95    46    47 2   
    96    48    49 1   
    97    48    50 1   
    98    48   109 1   
    99    49   110 1   
   100    49   111 1   
   101    49   112 1   
   102    50   113 1   
   103    50   114 1   
   104    50   115 1   
   105    51    52 1   
   106    51   116 1   
   107    51   130 1   
   108    52    54 1   
   109    52   117 1   
   110    52   129 1   
   111    53   129 2   
   112    54   118 1   
   113    54   119 1   
   114    54   120 1   
   115    55   130 2   
   116    56    57 1   
   117    56   130 1   
   118    57    58 1   
   119    57   121 1   
   120    57   122 1   
   121    58    59 ar  
   122    58    63 ar  
   123    59    60 ar  
   124    59   123 1   
   125    60    61 ar  
   126    60   124 1   
   127    61    62 ar  
   128    61   125 1   
   129    62    63 ar  
   130    62   126 1   
   131    63   127 1   
   132   100   128 1   
   133   101   128 1   
@<TRIPOS>SUBSTRUCTURE
     1 3TL         1 TEMP              0 ****  ****    0 ROOT
