@<TRIPOS>MOLECULE
3TL
  130   133     1     0     0
SMALL
No Charge or Current Charge


@<TRIPOS>ATOM
      1 C31         10.8710     0.4010    -1.0030 c          1 3TL       0.640100
      2 O8          11.2140    -0.4760    -1.7810 o          1 3TL      -0.552500
      3 O9          11.6500     1.4230    -0.5590 os         1 3TL      -0.454600
      4 CA          13.0060     1.4760    -1.0310 c3         1 3TL       0.231900
      5 C           13.6830     2.6890    -0.4080 ca         1 3TL      -0.101300
      6 C13         14.3490     2.5750     0.8290 ca         1 3TL      -0.083750
      7 C14         14.9750     3.6950     1.4040 ca         1 3TL      -0.115750
      8 C15         14.9390     4.9360     0.7460 ca         1 3TL      -0.097500
      9 C16         14.2750     5.0570    -0.4860 ca         1 3TL      -0.115750
     10 C17         13.6480     3.9370    -1.0620 ca         1 3TL      -0.083750
     11 N4           9.6270     0.5270    -0.4590 ns         1 3TL      -0.493400
     12 C18          8.4900    -0.3860    -0.7000 c3         1 3TL       0.052700
     13 C19          7.1490     0.3030    -0.3080 c          1 3TL       0.594100
     14 O4           7.0950     1.3690     0.2940 o          1 3TL      -0.612600
     15 C20          8.6900    -1.7230     0.0540 c3         1 3TL      -0.116600
     16 N2           6.0110    -0.3780    -0.6840 ns         1 3TL      -0.491900
     17 C10          4.6260     0.0330    -0.3660 c3         1 3TL       0.037700
     18 C11          3.7200    -1.2340    -0.3310 c          1 3TL       0.601600
     19 O2           4.0050    -2.2680    -0.9260 o          1 3TL      -0.603600
     20 C12          4.1320     1.1400    -1.3500 c3         1 3TL      -0.066200
     21 CG2          3.9260     0.6230    -2.7950 c3         1 3TL      -0.091350
     22 CG1          2.8750     1.8780    -0.8340 c3         1 3TL      -0.091350
     23 C2           0.2490    -2.0100     0.7690 c3         1 3TL       0.133300
     24 O1          -0.0950    -0.7650     1.3950 oh         1 3TL      -0.647000
     25 C1           1.7820    -2.2760     0.9070 c3         1 3TL       0.077700
     26 N1           2.6030    -1.1360     0.4700 ns         1 3TL      -0.494900
     27 C3           2.1910    -2.6830     2.3480 c3         1 3TL      -0.048100
     28 C4           3.6950    -2.9070     2.4920 ca         1 3TL      -0.086800
     29 C5           4.5210    -1.8950     3.0230 ca         1 3TL      -0.107000
     30 C9           4.2770    -4.1140     2.0560 ca         1 3TL      -0.107000
     31 C6           5.9100    -2.0860     3.1130 ca         1 3TL      -0.105250
     32 C8           5.6670    -4.3060     2.1490 ca         1 3TL      -0.105250
     33 C7           6.4840    -3.2920     2.6760 ca         1 3TL      -0.109500
     34 N51         -2.6100    -1.1240    -0.4260 ns         1 3TL      -0.494900
     35 C51         -1.7800    -2.2600    -0.8560 c3         1 3TL       0.077700
     36 C52         -0.2510    -1.9740    -0.7130 c3         1 3TL       0.133300
     37 O51          0.0660    -0.6900    -1.3000 oh         1 3TL      -0.647000
     38 C54         -3.6850    -2.9240    -2.4380 ca         1 3TL      -0.086800
     39 C55         -4.5280    -1.9230    -2.9610 ca         1 3TL      -0.107000
     40 C59         -4.2450    -4.1430    -2.0080 ca         1 3TL      -0.107000
     41 C56         -5.9150    -2.1370    -3.0480 ca         1 3TL      -0.105250
     42 C58         -5.6310    -4.3580    -2.0990 ca         1 3TL      -0.105250
     43 C57         -6.4670    -3.3550    -2.6170 ca         1 3TL      -0.109500
     44 N52         -6.0270    -0.3770     0.7100 ns         1 3TL      -0.491900
     45 C60         -4.6390     0.0380     0.4080 c3         1 3TL       0.037700
     46 C61         -3.7330    -1.2290     0.3680 c          1 3TL       0.601600
     47 O52         -4.0220    -2.2670     0.9530 o          1 3TL      -0.603600
     48 C62         -4.1530     1.1350     1.4050 c3         1 3TL      -0.066200
     49 CG6         -3.9620     0.6060     2.8480 c3         1 3TL      -0.091350
     50 CG5         -2.8890     1.8750     0.9080 c3         1 3TL      -0.091350
     51 N54         -9.6410     0.5250     0.4560 ns         1 3TL      -0.493400
     52 C68         -8.5050    -0.3860     0.7050 c3         1 3TL       0.052700
     53 O54         -7.1030     1.3760    -0.2640 o          1 3TL      -0.612600
     54 C70         -8.6950    -1.7210    -0.0560 c3         1 3TL      -0.116600
     55 O58        -11.2400    -0.4860     1.7580 o          1 3TL      -0.552500
     56 O59        -11.6660     1.4170     0.5400 os         1 3TL      -0.454600
     57 CA5        -13.0270     1.4660     0.9980 c3         1 3TL       0.231900
     58 C50        -13.7010     2.6810     0.3730 ca         1 3TL      -0.101300
     59 C63        -14.3540     2.5700    -0.8700 ca         1 3TL      -0.083750
     60 C64        -14.9770     3.6920    -1.4460 ca         1 3TL      -0.115750
     61 C65        -14.9490     4.9310    -0.7830 ca         1 3TL      -0.097500
     62 C66        -14.2960     5.0470     0.4560 ca         1 3TL      -0.115750
     63 C67        -13.6740     3.9260     1.0330 ca         1 3TL      -0.083750
     64 HA1         13.5520     0.5660    -0.7500 h1         1 3TL       0.055700
     65 HA2         13.0340     1.5610    -2.1260 h1         1 3TL       0.055700
     66 H13         14.3790     1.6180     1.3460 ha         1 3TL       0.114750
     67 H14         15.4880     3.6000     2.3590 ha         1 3TL       0.114000
     68 H15         15.4240     5.8020     1.1910 ha         1 3TL       0.113000
     69 H16         14.2450     6.0170    -0.9960 ha         1 3TL       0.114000
     70 H17         13.1340     4.0400    -2.0150 ha         1 3TL       0.114750
     71 HN4          9.4870     1.3280     0.1460 hn         1 3TL       0.350000
     72 H18          8.4350    -0.5930    -1.7770 h1         1 3TL       0.086200
     73 H201         7.8650    -2.4170    -0.1480 hc         1 3TL       0.052367
     74 H202         9.6210    -2.2110    -0.2560 hc         1 3TL       0.052367
     75 H203         8.7360    -1.5520     1.1370 hc         1 3TL       0.052367
     76 HN2          6.1410    -1.2650    -1.1610 hn         1 3TL       0.341500
     77 H10          4.6290     0.4450     0.6510 h1         1 3TL       0.075700
     78 H12          4.9230     1.8990    -1.3960 hc         1 3TL       0.065700
     79 HG21         3.1110    -0.1090    -2.8410 hc         1 3TL       0.039117
     80 HG22         3.6750     1.4520    -3.4670 hc         1 3TL       0.039117
     81 HG23         4.8380     0.1480    -3.1760 hc         1 3TL       0.039117
     82 HG11         3.0330     2.2520     0.1850 hc         1 3TL       0.039117
     83 HG12         2.6460     2.7390    -1.4750 hc         1 3TL       0.039117
     84 HG13         1.9990     1.2210    -0.8310 hc         1 3TL       0.039117
     85 H2          -0.2680    -2.8400     1.2730 h1         1 3TL       0.089700
     86 HO1         -0.1600    -0.1490     0.6290 ho         1 3TL       0.440500
     87 H1           2.0140    -3.1360     0.2630 h1         1 3TL       0.085200
     88 HN1          2.4280    -0.2390     0.9040 hn         1 3TL       0.312500
     89 H31          1.8600    -1.9060     3.0490 hc         1 3TL       0.062700
     90 H32          1.6500    -3.5940     2.6310 hc         1 3TL       0.062700
     91 H5           4.0870    -0.9550     3.3560 ha         1 3TL       0.109500
     92 H9           3.6530    -4.8990     1.6360 ha         1 3TL       0.109500
     93 H6           6.5420    -1.2990     3.5180 ha         1 3TL       0.116250
     94 H8           6.1100    -5.2390     1.8080 ha         1 3TL       0.116250
     95 H7           7.5590    -3.4400     2.7460 ha         1 3TL       0.114500
     96 HN51        -2.4330    -0.2240    -0.8550 hn         1 3TL       0.312500
     97 H51         -2.0070    -3.1190    -0.2100 h1         1 3TL       0.085200
     98 H52          0.2810    -2.7760    -1.2460 h1         1 3TL       0.089700
     99 HO51         0.0800    -0.8040    -2.2740 ho         1 3TL       0.440500
    100 H531        -1.8690    -1.8960    -3.0020 hc         1 3TL       0.062700
    101 H532        -1.6300    -3.5800    -2.5780 hc         1 3TL       0.062700
    102 H55         -4.1120    -0.9740    -3.2890 ha         1 3TL       0.109500
    103 H59         -3.6070    -4.9210    -1.5940 ha         1 3TL       0.109500
    104 H56         -6.5610    -1.3580    -3.4470 ha         1 3TL       0.116250
    105 H58         -6.0580    -5.3010    -1.7620 ha         1 3TL       0.116250
    106 H57         -7.5400    -3.5210    -2.6850 ha         1 3TL       0.114500
    107 HN52        -6.1600    -1.2670     1.1800 hn         1 3TL       0.341500
    108 H60         -4.6340     0.4590    -0.6060 h1         1 3TL       0.075700
    109 H62         -4.9430     1.8950     1.4510 hc         1 3TL       0.065700
    110 HG61        -3.1470    -0.1270     2.8960 hc         1 3TL       0.039117
    111 HG62        -3.7160     1.4290     3.5300 hc         1 3TL       0.039117
    112 HG63        -4.8770     0.1280     3.2160 hc         1 3TL       0.039117
    113 HG51        -3.0350     2.2560    -0.1100 hc         1 3TL       0.039117
    114 HG52        -2.6670     2.7320     1.5570 hc         1 3TL       0.039117
    115 HG53        -2.0130     1.2180     0.9110 hc         1 3TL       0.039117
    116 HN54        -9.4970     1.3290    -0.1430 hn         1 3TL       0.350000
    117 H68         -8.4610    -0.5980     1.7820 h1         1 3TL       0.086200
    118 H701        -8.7290    -1.5470    -1.1380 hc         1 3TL       0.052367
    119 H702        -7.8720    -2.4150     0.1530 hc         1 3TL       0.052367
    120 H703        -9.6290    -2.2120     0.2420 hc         1 3TL       0.052367
    121 HA51       -13.5690     0.5560     0.7070 h1         1 3TL       0.055700
    122 HA52       -13.0670     1.5470     2.0930 h1         1 3TL       0.055700
    123 H63        -14.3780     1.6160    -1.3910 ha         1 3TL       0.114750
    124 H64        -15.4800     3.6010    -2.4060 ha         1 3TL       0.114000
    125 H65        -15.4300     5.7980    -1.2290 ha         1 3TL       0.113000
    126 H66        -14.2720     6.0060     0.9690 ha         1 3TL       0.114000
    127 H67        -13.1680     4.0260     1.9910 ha         1 3TL       0.114750
    128 C53         -2.1840    -2.6750    -2.2970 c3         1 3TL      -0.048100
    129 C69         -7.1620     0.3060     0.3300 c          1 3TL       0.594100
    130 C81        -10.8910     0.3940     0.9870 c          1 3TL       0.640100
@<TRIPOS>BOND
     1     1     2 2   
     2     1     3 1   
     3     1    11 1   
     4     3     4 1   
     5     4     5 1   
     6     4    64 1   
     7     4    65 1   
     8     5     6 ar  
     9     5    10 ar  
    10     6     7 ar  
    11     6    66 1   
    12     7     8 ar  
    13     7    67 1   
    14     8     9 ar  
    15     8    68 1   
    16     9    10 ar  
    17     9    69 1   
    18    10    70 1   
    19    11    12 1   
    20    11    71 1   
    21    12    13 1   
    22    12    15 1   
    23    12    72 1   
    24    13    14 2   
    25    13    16 1   
    26    15    73 1   
    27    15    74 1   
    28    15    75 1   
    29    16    17 1   
    30    16    76 1   
    31    17    18 1   
    32    17    20 1   
    33    17    77 1   
    34    18    19 2   
    35    18    26 1   
    36    20    21 1   
    37    20    22 1   
    38    20    78 1   
    39    21    79 1   
    40    21    80 1   
    41    21    81 1   
    42    22    82 1   
    43    22    83 1   
    44    22    84 1   
    45    23    24 1   
    46    23    25 1   
    47    23    36 1   
    48    23    85 1   
    49    24    86 1   
    50    25    26 1   
    51    25    27 1   
    52    25    87 1   
    53    26    88 1   
    54    27    28 1   
    55    27    89 1   
    56    27    90 1   
    57    28    29 ar  
    58    28    30 ar  
    59    29    31 ar  
    60    29    91 1   
    61    30    32 ar  
    62    30    92 1   
    63    31    33 ar  
    64    31    93 1   
    65    32    33 ar  
    66    32    94 1   
    67    33    95 1   
    68    34    35 1   
    69    34    46 1   
    70    34    96 1   
    71    35    36 1   
    72    35    97 1   
    73    35   128 1   
    74    36    37 1   
    75    36    98 1   
    76    37    99 1   
    77    38    39 ar  
    78    38    40 ar  
    79    38   128 1   
    80    39    41 ar  
    81    39   102 1   
    82    40    42 ar  
    83    40   103 1   
    84    41    43 ar  
    85    41   104 1   
    86    42    43 ar  
    87    42   105 1   
    88    43   106 1   
    89    44    45 1   
    90    44   107 1   
    91    44   129 1   
    92    45    46 1   
    93    45    48 1   
    94    45   108 1   
    95    46    47 2   
    96    48    49 1   
    97    48    50 1   
    98    48   109 1   
    99    49   110 1   
   100    49   111 1   
   101    49   112 1   
   102    50   113 1   
   103    50   114 1   
   104    50   115 1   
   105    51    52 1   
   106    51   116 1   
   107    51   130 1   
   108    52    54 1   
   109    52   117 1   
   110    52   129 1   
   111    53   129 2   
   112    54   118 1   
   113    54   119 1   
   114    54   120 1   
   115    55   130 2   
   116    56    57 1   
   117    56   130 1   
   118    57    58 1   
   119    57   121 1   
   120    57   122 1   
   121    58    59 ar  
   122    58    63 ar  
   123    59    60 ar  
   124    59   123 1   
   125    60    61 ar  
   126    60   124 1   
   127    61    62 ar  
   128    61   125 1   
   129    62    63 ar  
   130    62   126 1   
   131    63   127 1   
   132   100   128 1   
   133   101   128 1   
@<TRIPOS>SUBSTRUCTURE
     1 3TL         1 TEMP              0 ****  ****    0 ROOT
