@<TRIPOS>MOLECULE
3TN
   55    57     1     0     0
SMALL
No Charge or Current Charge


@<TRIPOS>ATOM
      1 CAA         -0.4510   -20.5920    29.1180 c3         1 3TN       0.149900
      2 OAR         -1.5120   -19.7510    29.6020 os         1 3TN      -0.328100
      3 CAV         -1.4940   -19.1870    30.8660 ca         1 3TN       0.153100
      4 CAN         -0.4560   -19.4310    31.7860 ca         1 3TN      -0.203000
      5 CAY         -0.4750   -18.8670    33.0820 ca         1 3TN      -0.032300
      6 CBA          0.7090   -19.1620    34.0440 c6         1 3TN      -0.001700
      7 CAB          0.6270   -20.6570    34.4880 c3         1 3TN      -0.079100
      8 CAC          2.0890   -18.9700    33.3340 c3         1 3TN      -0.079100
      9 CAP          0.6920   -18.2240    35.2850 c6         1 3TN      -0.064400
     10 CAQ         -0.7150   -18.1050    35.8930 c6         1 3TN      -0.066400
     11 CBB         -1.7240   -17.4680    34.8970 c6         1 3TN       0.006300
     12 CAD         -1.4900   -15.9280    34.7890 c3         1 3TN      -0.081600
     13 CAE         -3.1570   -17.6730    35.4860 c3         1 3TN      -0.081600
     14 CAZ         -1.6000   -18.0840    33.4760 ca         1 3TN      -0.100300
     15 CAO         -2.6200   -17.8310    32.5290 ca         1 3TN      -0.068000
     16 CAX         -2.5840   -18.3600    31.2220 cp         1 3TN      -0.028000
     17 CAW         -3.7020   -18.0640    30.2750 cp         1 3TN      -0.064000
     18 CAM         -5.0000   -18.5580    30.5510 ca         1 3TN      -0.076000
     19 CAU         -3.5130   -17.2760    29.1090 ca         1 3TN       0.120100
     20 OAH         -2.2970   -16.7330    28.8110 oh         1 3TN      -0.542100
     21 CAL         -4.5910   -17.0160    28.2480 ca         1 3TN      -0.205000
     22 CAK         -5.8690   -17.5270    28.5330 ca         1 3TN      -0.078000
     23 CAT         -6.0850   -18.3010    29.6910 ca         1 3TN      -0.031800
     24 CAJ         -7.4310   -18.8530    30.0260 ce         1 3TN      -0.233200
     25 CAI         -8.6140   -18.7310    29.3460 cf         1 3TN      -0.211200
     26 CAS         -9.9210   -19.3240    29.7640 c          1 3TN       0.686200
     27 OAG        -10.8860   -19.1220    29.0460 o          1 3TN      -0.727000
     28 OAF         -9.9720   -19.9790    30.7940 o          1 3TN      -0.727000
     29 HAI         -8.6450   -18.1620    28.4200 ha         1 3TN       0.143000
     30 HAJ         -7.4480   -19.4340    30.9520 ha         1 3TN       0.190000
     31 HAM         -5.1540   -19.1560    31.4460 ha         1 3TN       0.118000
     32 HAH         -2.3810   -16.2360    27.9710 ho         1 3TN       0.446000
     33 HAL         -4.4470   -16.4120    27.3560 ha         1 3TN       0.097000
     34 HAK         -6.6850   -17.3100    27.8500 ha         1 3TN       0.118000
     35 HAO         -3.4630   -17.2000    32.7910 ha         1 3TN       0.120000
     36 HAN          0.3700   -20.0720    31.5060 ha         1 3TN       0.107000
     37 HAA1        -0.6640   -20.9190    28.0930 h1         1 3TN       0.034700
     38 HAA2         0.5030   -20.0500    29.1110 h1         1 3TN       0.034700
     39 HAA3        -0.3460   -21.4860    29.7460 h1         1 3TN       0.034700
     40 HAB1         0.7410   -21.3370    33.6350 hc         1 3TN       0.032367
     41 HAB2         1.4130   -20.9060    35.2110 hc         1 3TN       0.032367
     42 HAB3        -0.3380   -20.8890    34.9530 hc         1 3TN       0.032367
     43 HAC1         2.2690   -19.7100    32.5460 hc         1 3TN       0.032367
     44 HAC2         2.1620   -17.9760    32.8770 hc         1 3TN       0.032367
     45 HAC3         2.9180   -19.0650    34.0460 hc         1 3TN       0.032367
     46 HAP1         1.3910   -18.5940    36.0480 hc         1 3TN       0.036200
     47 HAP2         1.0580   -17.2260    35.0100 hc         1 3TN       0.036200
     48 HAQ1        -1.0660   -19.0980    36.2030 hc         1 3TN       0.038200
     49 HAQ2        -0.6660   -17.5090    36.8150 hc         1 3TN       0.038200
     50 HAD1        -1.5180   -15.4470    35.7740 hc         1 3TN       0.034367
     51 HAD2        -0.5210   -15.6960    34.3340 hc         1 3TN       0.034367
     52 HAD3        -2.2560   -15.4470    34.1690 hc         1 3TN       0.034367
     53 HAE1        -3.2080   -17.3400    36.5300 hc         1 3TN       0.034367
     54 HAE2        -3.9250   -17.1120    34.9420 hc         1 3TN       0.034367
     55 HAE3        -3.4440   -18.7310    35.4670 hc         1 3TN       0.034367
@<TRIPOS>BOND
     1     1     2 1   
     2     1    37 1   
     3     1    38 1   
     4     1    39 1   
     5     2     3 1   
     6     3     4 ar  
     7     3    16 ar  
     8     4     5 ar  
     9     4    36 1   
    10     5     6 1   
    11     5    14 ar  
    12     6     7 1   
    13     6     8 1   
    14     6     9 1   
    15     7    40 1   
    16     7    41 1   
    17     7    42 1   
    18     8    43 1   
    19     8    44 1   
    20     8    45 1   
    21     9    10 1   
    22     9    46 1   
    23     9    47 1   
    24    10    11 1   
    25    10    48 1   
    26    10    49 1   
    27    11    12 1   
    28    11    13 1   
    29    11    14 1   
    30    12    50 1   
    31    12    51 1   
    32    12    52 1   
    33    13    53 1   
    34    13    54 1   
    35    13    55 1   
    36    14    15 ar  
    37    15    16 ar  
    38    15    35 1   
    39    16    17 1   
    40    17    18 ar  
    41    17    19 ar  
    42    18    23 ar  
    43    18    31 1   
    44    19    20 1   
    45    19    21 ar  
    46    20    32 1   
    47    21    22 ar  
    48    21    33 1   
    49    22    23 ar  
    50    22    34 1   
    51    23    24 1   
    52    24    25 2   
    53    24    30 1   
    54    25    26 1   
    55    25    29 1   
    56    26    27 1   
    57    26    28 1   
@<TRIPOS>SUBSTRUCTURE
     1 3TN         1 TEMP              0 ****  ****    0 ROOT
