@<TRIPOS>MOLECULE
3TN
   55    57     1     0     0
SMALL
abcg2


@<TRIPOS>ATOM
      1 CAA         -0.5190   -20.5730    29.2270 c3         1 3TN       0.149900
      2 OAR         -1.5900   -19.7320    29.6450 os         1 3TN      -0.328100
      3 CAV         -1.5400   -19.1940    30.8970 ca         1 3TN       0.153100
      4 CAN         -0.5140   -19.4290    31.7990 ca         1 3TN      -0.203000
      5 CAY         -0.5130   -18.8700    33.0860 ca         1 3TN      -0.032300
      6 CBA          0.6720   -19.1830    34.0030 c6         1 3TN      -0.001700
      7 CAB          0.5700   -20.6460    34.4760 c3         1 3TN      -0.079100
      8 CAC          2.0090   -18.9960    33.2650 c3         1 3TN      -0.079100
      9 CAP          0.6750   -18.2380    35.2160 c6         1 3TN      -0.064400
     10 CAQ         -0.7020   -18.0760    35.8330 c6         1 3TN      -0.066400
     11 CBB         -1.7080   -17.4330    34.8650 c6         1 3TN       0.006300
     12 CAD         -1.4260   -15.9230    34.7360 c3         1 3TN      -0.081600
     13 CAE         -3.1140   -17.6200    35.4590 c3         1 3TN      -0.081600
     14 CAZ         -1.6000   -18.0820    33.4840 ca         1 3TN      -0.100300
     15 CAO         -2.6170   -17.8470    32.5500 ca         1 3TN      -0.068000
     16 CAX         -2.6150   -18.3690    31.2660 cp         1 3TN      -0.028000
     17 CAW         -3.7240   -18.0720    30.3250 cp         1 3TN      -0.064000
     18 CAM         -4.9990   -18.5870    30.5390 ca         1 3TN      -0.076000
     19 CAU         -3.5260   -17.2450    29.2120 ca         1 3TN       0.120100
     20 OAH         -2.2840   -16.7170    29.0190 oh         1 3TN      -0.542100
     21 CAL         -4.5860   -16.9620    28.3500 ca         1 3TN      -0.205000
     22 CAK         -5.8420   -17.4920    28.5840 ca         1 3TN      -0.078000
     23 CAT         -6.0800   -18.3200    29.6890 ca         1 3TN      -0.031800
     24 CAJ         -7.3790   -18.9230    29.9800 ce         1 3TN      -0.233200
     25 CAI         -8.5280   -18.7550    29.3150 cf         1 3TN      -0.211200
     26 CAS         -9.8190   -19.4330    29.6970 c          1 3TN       0.686200
     27 OAG        -10.8330   -19.0980    29.0210 o          1 3TN      -0.727000
     28 OAF         -9.8060   -20.2710    30.6370 o          1 3TN      -0.727000
     29 HAI         -8.5870   -18.0980    28.4540 ha         1 3TN       0.143000
     30 HAJ         -7.4020   -19.5880    30.8390 ha         1 3TN       0.190000
     31 HAM         -5.1540   -19.2300    31.3980 ha         1 3TN       0.118000
     32 HAH         -2.2850   -16.1620    28.2280 ho         1 3TN       0.446000
     33 HAL         -4.4160   -16.3160    27.4950 ha         1 3TN       0.097000
     34 HAK         -6.6440   -17.2580    27.8950 ha         1 3TN       0.118000
     35 HAO         -3.4510   -17.2150    32.8250 ha         1 3TN       0.120000
     36 HAN          0.3080   -20.0620    31.5070 ha         1 3TN       0.107000
     37 HAA1        -0.7620   -20.8850    28.2150 h1         1 3TN       0.034700
     38 HAA2         0.4310   -20.0320    29.2260 h1         1 3TN       0.034700
     39 HAA3        -0.4330   -21.4520    29.8710 h1         1 3TN       0.034700
     40 HAB1         0.5770   -21.3300    33.6250 hc         1 3TN       0.032367
     41 HAB2         1.4180   -20.8930    35.1200 hc         1 3TN       0.032367
     42 HAB3        -0.3490   -20.8200    35.0370 hc         1 3TN       0.032367
     43 HAC1         2.1460   -19.7210    32.4620 hc         1 3TN       0.032367
     44 HAC2         2.0780   -17.9940    32.8380 hc         1 3TN       0.032367
     45 HAC3         2.8340   -19.1240    33.9690 hc         1 3TN       0.032367
     46 HAP1         1.3820   -18.6220    35.9550 hc         1 3TN       0.036200
     47 HAP2         1.0550   -17.2610    34.9040 hc         1 3TN       0.036200
     48 HAQ1        -1.0840   -19.0530    36.1420 hc         1 3TN       0.038200
     49 HAQ2        -0.6450   -17.4640    36.7370 hc         1 3TN       0.038200
     50 HAD1        -1.5060   -15.4370    35.7120 hc         1 3TN       0.034367
     51 HAD2        -0.4260   -15.7370    34.3410 hc         1 3TN       0.034367
     52 HAD3        -2.1440   -15.4540    34.0600 hc         1 3TN       0.034367
     53 HAE1        -3.1350   -17.2290    36.4790 hc         1 3TN       0.034367
     54 HAE2        -3.8790   -17.0930    34.8880 hc         1 3TN       0.034367
     55 HAE3        -3.3810   -18.6780    35.4950 hc         1 3TN       0.034367
@<TRIPOS>BOND
     1     1     2 1   
     2     1    37 1   
     3     1    38 1   
     4     1    39 1   
     5     2     3 1   
     6     3     4 ar  
     7     3    16 ar  
     8     4     5 ar  
     9     4    36 1   
    10     5     6 1   
    11     5    14 ar  
    12     6     7 1   
    13     6     8 1   
    14     6     9 1   
    15     7    40 1   
    16     7    41 1   
    17     7    42 1   
    18     8    43 1   
    19     8    44 1   
    20     8    45 1   
    21     9    10 1   
    22     9    46 1   
    23     9    47 1   
    24    10    11 1   
    25    10    48 1   
    26    10    49 1   
    27    11    12 1   
    28    11    13 1   
    29    11    14 1   
    30    12    50 1   
    31    12    51 1   
    32    12    52 1   
    33    13    53 1   
    34    13    54 1   
    35    13    55 1   
    36    14    15 ar  
    37    15    16 ar  
    38    15    35 1   
    39    16    17 1   
    40    17    18 ar  
    41    17    19 ar  
    42    18    23 ar  
    43    18    31 1   
    44    19    20 1   
    45    19    21 ar  
    46    20    32 1   
    47    21    22 ar  
    48    21    33 1   
    49    22    23 ar  
    50    22    34 1   
    51    23    24 1   
    52    24    25 2   
    53    24    30 1   
    54    25    26 1   
    55    25    29 1   
    56    26    27 1   
    57    26    28 1   
@<TRIPOS>SUBSTRUCTURE
     1 3TN         1 TEMP              0 ****  ****    0 ROOT
