@<TRIPOS>MOLECULE
3TO
   47    49     1     0     0
SMALL
abcg2


@<TRIPOS>ATOM
      1 C1           7.2400     0.6480     0.0140 ca         1 3TO      -0.217000
      2 N1           6.5160    -1.5830    -0.4330 nb         1 3TO      -0.746000
      3 O1          -6.7520    -1.1610    -0.8340 os         1 3TO      -0.247000
      4 C2           7.4710    -0.7030    -0.1490 ca         1 3TO       0.381900
      5 C3           5.2660    -1.1520    -0.5740 ca         1 3TO       0.598900
      6 N3          -3.2850    -0.3010    -0.2220 n3         1 3TO      -0.724600
      7 C4           4.9100     0.2090    -0.4320 ca         1 3TO      -0.191300
      8 C5           5.9280     1.0920    -0.1320 ca         1 3TO      -0.037000
      9 C6           3.4890     0.6750    -0.5570 c3         1 3TO      -0.022100
     10 C7           2.6790     0.4460     0.7320 c3         1 3TO      -0.031100
     11 C8           1.2660     0.9360     0.5980 ca         1 3TO      -0.084300
     12 C9           0.3010     0.1540    -0.0370 ca         1 3TO      -0.106000
     13 C10         -1.0020     0.6010    -0.2100 ca         1 3TO      -0.084300
     14 C11         -1.3510     1.8620     0.2710 ca         1 3TO      -0.086000
     15 C12         -0.4050     2.6510     0.9050 ca         1 3TO      -0.113000
     16 C13          0.8980     2.1920     1.0670 ca         1 3TO      -0.103000
     17 C14         -2.0210    -0.2440    -0.9300 c3         1 3TO       0.219100
     18 C15         -5.6830    -0.3990    -0.5190 cc         1 3TO       0.123300
     19 C16         -4.3540    -0.8220    -1.0460 c3         1 3TO       0.145500
     20 C17         -6.0800     0.6690     0.2160 cd         1 3TO      -0.164000
     21 C18         -7.4980     0.5500     0.3610 cd         1 3TO      -0.189000
     22 C19         -7.8480    -0.5770    -0.2980 cc         1 3TO       0.117900
     23 C20         -3.1650    -1.0200     1.0300 c3         1 3TO       0.148100
     24 H1           8.0480     1.3280     0.2440 ha         1 3TO       0.124000
     25 H2           8.4730    -1.1060    -0.0450 h4         1 3TO       0.015100
     26 HN2          4.6120    -3.0510    -0.7730 hn         1 3TO       0.468000
     27 HN2A         3.3690    -1.9210    -0.7120 hn         1 3TO       0.468000
     28 H5           5.6960     2.1440    -0.0150 ha         1 3TO       0.113000
     29 H6           3.4800     1.7430    -0.7850 hc         1 3TO       0.053200
     30 H6A          2.9890     0.1850    -1.3980 hc         1 3TO       0.053200
     31 H7           2.6810    -0.6170     0.9920 hc         1 3TO       0.045700
     32 H7A          3.1780     0.9630     1.5540 hc         1 3TO       0.045700
     33 H9           0.5730    -0.8330    -0.4000 ha         1 3TO       0.104000
     34 H11         -2.3680     2.2150     0.1570 ha         1 3TO       0.127000
     35 H12         -0.6810     3.6290     1.2790 ha         1 3TO       0.114000
     36 H13          1.6310     2.8140     1.5680 ha         1 3TO       0.112000
     37 H14         -1.6010    -1.2460    -1.1180 h1         1 3TO       0.038200
     38 H14A        -2.2050     0.1980    -1.9140 h1         1 3TO       0.038200
     39 H16         -4.2310    -0.4290    -2.0610 h1         1 3TO       0.048700
     40 H16A        -4.3240    -1.9200    -1.1440 h1         1 3TO       0.048700
     41 H17         -5.4420     1.4420     0.6110 ha         1 3TO       0.149000
     42 H18         -8.1620     1.2160     0.8890 ha         1 3TO       0.140000
     43 H19         -8.7900    -1.0740    -0.4640 h4         1 3TO       0.051100
     44 H20         -2.4220    -0.5430     1.6690 h1         1 3TO       0.036700
     45 H20A        -4.1120    -1.0080     1.5670 h1         1 3TO       0.036700
     46 H20B        -2.8670    -2.0700     0.8890 h1         1 3TO       0.036700
     47 N2           4.3370    -2.0940    -0.9230 nv         1 3TO      -1.054900
@<TRIPOS>BOND
     1     1     4 ar  
     2     1     8 ar  
     3     1    24 1   
     4     2     4 ar  
     5     2     5 ar  
     6     3    18 1   
     7     3    22 1   
     8     4    25 1   
     9     5     7 ar  
    10     5    47 1   
    11     6    17 1   
    12     6    19 1   
    13     6    23 1   
    14     7     8 ar  
    15     7     9 1   
    16     8    28 1   
    17     9    10 1   
    18     9    29 1   
    19     9    30 1   
    20    10    11 1   
    21    10    31 1   
    22    10    32 1   
    23    11    12 ar  
    24    11    16 ar  
    25    12    13 ar  
    26    12    33 1   
    27    13    14 ar  
    28    13    17 1   
    29    14    15 ar  
    30    14    34 1   
    31    15    16 ar  
    32    15    35 1   
    33    16    36 1   
    34    17    37 1   
    35    17    38 1   
    36    18    19 1   
    37    18    20 2   
    38    19    39 1   
    39    19    40 1   
    40    20    21 1   
    41    20    41 1   
    42    21    22 2   
    43    21    42 1   
    44    22    43 1   
    45    23    44 1   
    46    23    45 1   
    47    23    46 1   
    48    26    47 1   
    49    27    47 1   
@<TRIPOS>SUBSTRUCTURE
     1 3TO         1 TEMP              0 ****  ****    0 ROOT
