@<TRIPOS>MOLECULE
3TO
   47    49     1     0     0
SMALL
No Charge or Current Charge


@<TRIPOS>ATOM
      1 C1           7.1630     0.1060     0.7190 ca         1 3TO      -0.217000
      2 N1           6.3920    -1.8970    -0.4020 nb         1 3TO      -0.746000
      3 O1          -6.4310    -1.7730    -0.2480 os         1 3TO      -0.247000
      4 C2           7.3460    -1.2110     0.2660 ca         1 3TO       0.381900
      5 C3           5.2450    -1.2680    -0.6270 ca         1 3TO       0.598900
      6 N3          -3.3260     0.0500    -0.3870 n3         1 3TO      -0.724600
      7 C4           4.9440     0.0490    -0.2220 ca         1 3TO      -0.191300
      8 C5           5.9420     0.7540     0.4750 ca         1 3TO      -0.037000
      9 C6           3.5980     0.7160    -0.5060 c3         1 3TO      -0.022100
     10 C7           2.5760     0.4750     0.6240 c3         1 3TO      -0.031100
     11 C8           1.2420     1.1550     0.3460 ca         1 3TO      -0.084300
     12 C9           0.2060     0.4510    -0.2980 ca         1 3TO      -0.106000
     13 C10         -1.0300     1.0760    -0.5610 ca         1 3TO      -0.084300
     14 C11         -1.2220     2.4170    -0.1760 ca         1 3TO      -0.086000
     15 C12         -0.1910     3.1240     0.4640 ca         1 3TO      -0.113000
     16 C13          1.0380     2.4960     0.7240 ca         1 3TO      -0.103000
     17 C14         -2.1530     0.3110    -1.2580 c3         1 3TO       0.219100
     18 C15         -5.7730    -0.5670    -0.3650 cc         1 3TO       0.123300
     19 C16         -4.4820    -0.4940    -1.1500 c3         1 3TO       0.145500
     20 C17         -6.4720     0.4010     0.3040 cd         1 3TO      -0.164000
     21 C18         -7.6080    -0.2200     0.8620 cd         1 3TO      -0.189000
     22 C19         -7.5580    -1.5420     0.5110 cc         1 3TO       0.117900
     23 C20         -2.9860    -0.7670     0.8060 c3         1 3TO       0.148100
     24 H1           7.9620     0.6120     1.2530 ha         1 3TO       0.124000
     25 H2           8.2850    -1.7340     0.4460 h4         1 3TO       0.015100
     26 HN2          4.6790    -3.0530    -1.2890 hn         1 3TO       0.468000
     27 HN2A         3.4160    -1.8810    -1.2140 hn         1 3TO       0.468000
     28 H5           5.7760     1.7740     0.8180 ha         1 3TO       0.113000
     29 H6           3.7380     1.7980    -0.6300 hc         1 3TO       0.053200
     30 H6A          3.1790     0.3620    -1.4560 hc         1 3TO       0.053200
     31 H7           2.4310    -0.6040     0.7560 hc         1 3TO       0.045700
     32 H7A          2.9950     0.8430     1.5690 hc         1 3TO       0.045700
     33 H9           0.3590    -0.5840    -0.5930 ha         1 3TO       0.104000
     34 H11         -2.1740     2.9060    -0.3710 ha         1 3TO       0.127000
     35 H12         -0.3450     4.1600     0.7600 ha         1 3TO       0.114000
     36 H13          1.8320     3.0510     1.2180 ha         1 3TO       0.112000
     37 H14         -1.7570    -0.6370    -1.6480 h1         1 3TO       0.038200
     38 H14A        -2.4650     0.9030    -2.1300 h1         1 3TO       0.038200
     39 H16         -4.6740     0.1350    -2.0300 h1         1 3TO       0.048700
     40 H16A        -4.2450    -1.4990    -1.5250 h1         1 3TO       0.048700
     41 H17         -6.1910     1.4460     0.3860 ha         1 3TO       0.149000
     42 H18         -8.3800     0.2520     1.4600 ha         1 3TO       0.140000
     43 H19         -8.2140    -2.3770     0.7190 h4         1 3TO       0.051100
     44 H20         -2.1910    -0.2940     1.3970 h1         1 3TO       0.036700
     45 H20A        -3.8570    -0.8850     1.4650 h1         1 3TO       0.036700
     46 H20B        -2.6440    -1.7680     0.5100 h1         1 3TO       0.036700
     47 N2           4.4060    -2.0780    -1.2820 nv         1 3TO      -1.054900
@<TRIPOS>BOND
     1     1     4 ar  
     2     1     8 ar  
     3     1    24 1   
     4     2     4 ar  
     5     2     5 ar  
     6     3    18 1   
     7     3    22 1   
     8     4    25 1   
     9     5     7 ar  
    10     5    47 1   
    11     6    17 1   
    12     6    19 1   
    13     6    23 1   
    14     7     8 ar  
    15     7     9 1   
    16     8    28 1   
    17     9    10 1   
    18     9    29 1   
    19     9    30 1   
    20    10    11 1   
    21    10    31 1   
    22    10    32 1   
    23    11    12 ar  
    24    11    16 ar  
    25    12    13 ar  
    26    12    33 1   
    27    13    14 ar  
    28    13    17 1   
    29    14    15 ar  
    30    14    34 1   
    31    15    16 ar  
    32    15    35 1   
    33    16    36 1   
    34    17    37 1   
    35    17    38 1   
    36    18    19 1   
    37    18    20 2   
    38    19    39 1   
    39    19    40 1   
    40    20    21 1   
    41    20    41 1   
    42    21    22 2   
    43    21    42 1   
    44    22    43 1   
    45    23    44 1   
    46    23    45 1   
    47    23    46 1   
    48    26    47 1   
    49    27    47 1   
@<TRIPOS>SUBSTRUCTURE
     1 3TO         1 TEMP              0 ****  ****    0 ROOT
