@<TRIPOS>MOLECULE
3TP
   48    50     1     0     0
SMALL
abcg2


@<TRIPOS>ATOM
      1 C2           0.0820    -2.8120     4.2900 c3         1 3TP       0.106500
      2 C3           1.0460    -3.9510     3.9460 c          1 3TP       0.556100
      3 O5           0.6020    -5.0910     3.8240 o          1 3TP      -0.617100
      4 C10          3.2590    -4.7020     3.2720 c5         1 3TP       0.097500
      5 C11          4.5390    -3.9310     2.9790 c5         1 3TP      -0.094900
      6 C12          4.4820    -2.7820     3.9800 c5         1 3TP      -0.094900
      7 C13          3.0090    -2.3930     3.9700 c5         1 3TP       0.097500
      8 C20          0.1600    -3.5670     6.6370 cc         1 3TP       0.500300
      9 C22          1.6820    -3.7420     8.0380 cd         1 3TP       0.600500
     10 C25          2.9590    -3.5260     8.7180 ca         1 3TP      -0.083500
     11 C26          3.2690    -4.2060     9.8950 ca         1 3TP      -0.091500
     12 C27          4.4800    -3.9860    10.5260 ca         1 3TP      -0.028000
     13 C29          5.0890    -2.4040     8.8000 ca         1 3TP      -0.028000
     14 C30          3.8730    -2.6260     8.1770 ca         1 3TP      -0.091500
     15 C1          -0.7510    -3.1950     5.5230 c3         1 3TP      -0.082000
     16 N4           2.3310    -3.6640     3.7180 n          1 3TP      -0.401800
     17 N6          -0.8040    -2.5290     3.1760 n8         1 3TP      -0.999200
     18 N21          1.3290    -3.0860     6.8960 nd         1 3TP      -0.739000
     19 N23          0.7790    -4.5750     8.4570 nc         1 3TP      -0.363300
     20 O24         -0.2230    -4.4630     7.5370 os         1 3TP      -0.069700
     21 C28          5.3820    -3.0890     9.9680 ca         1 3TP      -0.250500
     22 S34          6.9410    -2.8040    10.7740 sy         1 3TP       1.055500
     23 O35          7.4300    -1.4910    10.3610 o          1 3TP      -0.520000
     24 O36          6.7720    -3.0740    12.2000 o          1 3TP      -0.520000
     25 C37          8.0050    -4.0470    10.0830 c3         1 3TP      -0.337100
     26 C44         -1.6710    -2.0560     5.9690 c3         1 3TP      -0.084100
     27 H2           0.6180    -1.8900     4.5190 h1         1 3TP       0.080700
     28 H11          4.5220    -3.5420     1.9590 hc         1 3TP       0.055450
     29 H12          4.7680    -3.1360     4.9740 hc         1 3TP       0.055450
     30 H13          2.6930    -1.9600     4.9180 h1         1 3TP       0.056200
     31 H26          2.5650    -4.9030    10.3290 ha         1 3TP       0.138500
     32 H27          4.7080    -4.5090    11.4450 ha         1 3TP       0.140500
     33 H29          5.7890    -1.6990     8.3720 ha         1 3TP       0.140500
     34 H30          3.6330    -2.0890     7.2690 ha         1 3TP       0.138500
     35 H1          -1.3620    -4.0690     5.2800 hc         1 3TP       0.099700
     36 HN61        -1.1880    -3.3910     2.8070 hn         1 3TP       0.413500
     37 HN62        -0.2890    -2.0930     2.4220 hn         1 3TP       0.413500
     38 H371         8.0550    -3.9200     9.0040 h1         1 3TP       0.103700
     39 H372         8.9930    -3.9080    10.5220 h1         1 3TP       0.103700
     40 H373         7.6210    -5.0330    10.3340 h1         1 3TP       0.103700
     41 H441        -1.0960    -1.1710     6.2430 hc         1 3TP       0.053033
     42 H442        -2.2740    -2.3510     6.8270 hc         1 3TP       0.053033
     43 H443        -2.3420    -1.7930     5.1550 hc         1 3TP       0.053033
     44 H10A         3.4110    -5.4430     4.0620 h1         1 3TP       0.056200
     45 H11A         5.4270    -4.5540     3.0830 hc         1 3TP       0.055450
     46 H12A         5.1290    -1.9450     3.7220 hc         1 3TP       0.055450
     47 H13A         2.8010    -1.6730     3.1740 h1         1 3TP       0.056200
     48 H10          2.8690    -5.2250     2.3980 h1         1 3TP       0.056200
@<TRIPOS>BOND
     1     1     2 1   
     2     1    15 1   
     3     1    17 1   
     4     1    27 1   
     5     2     3 2   
     6     2    16 1   
     7     4     5 1   
     8     4    16 1   
     9     4    44 1   
    10     4    48 1   
    11     5     6 1   
    12     5    28 1   
    13     5    45 1   
    14     6     7 1   
    15     6    29 1   
    16     6    46 1   
    17     7    16 1   
    18     7    30 1   
    19     7    47 1   
    20     8    15 1   
    21     8    18 2   
    22     8    20 1   
    23     9    10 1   
    24     9    18 1   
    25     9    19 2   
    26    10    11 ar  
    27    10    14 ar  
    28    11    12 ar  
    29    11    31 1   
    30    12    21 ar  
    31    12    32 1   
    32    13    14 ar  
    33    13    21 ar  
    34    13    33 1   
    35    14    34 1   
    36    15    26 1   
    37    15    35 1   
    38    17    36 1   
    39    17    37 1   
    40    19    20 1   
    41    21    22 1   
    42    22    23 2   
    43    22    24 2   
    44    22    25 1   
    45    25    38 1   
    46    25    39 1   
    47    25    40 1   
    48    26    41 1   
    49    26    42 1   
    50    26    43 1   
@<TRIPOS>SUBSTRUCTURE
     1 3TP         1 TEMP              0 ****  ****    0 ROOT
