@<TRIPOS>MOLECULE
3TP
   48    50     1     0     0
SMALL
No Charge or Current Charge


@<TRIPOS>ATOM
      1 C2          -0.0800    -2.6910     4.0270 c3         1 3TP       0.106500
      2 C3           0.7940    -3.9610     3.6750 c          1 3TP       0.556100
      3 O5           0.2580    -4.9800     3.2520 o          1 3TP      -0.617100
      4 C10          3.0390    -5.1330     3.6800 c5         1 3TP       0.097500
      5 C11          4.4650    -4.5250     3.6160 c5         1 3TP      -0.094900
      6 C12          4.3420    -3.3190     4.5780 c5         1 3TP      -0.094900
      7 C13          2.9890    -2.7110     4.1330 c5         1 3TP       0.097500
      8 C20          0.1970    -3.4160     6.4460 cc         1 3TP       0.500300
      9 C22          1.8140    -3.7860     7.7310 cd         1 3TP       0.600500
     10 C25          3.0440    -3.5600     8.5250 ca         1 3TP      -0.083500
     11 C26          3.6480    -4.6160     9.2470 ca         1 3TP      -0.091500
     12 C27          4.8240    -4.4030     9.9870 ca         1 3TP      -0.028000
     13 C29          4.8310    -2.0680     9.2980 ca         1 3TP      -0.028000
     14 C30          3.6550    -2.2850     8.5600 ca         1 3TP      -0.091500
     15 C1          -0.7620    -2.8560     5.4220 c3         1 3TP      -0.082000
     16 N4           2.1930    -3.9340     3.8800 n          1 3TP      -0.401800
     17 N6          -1.1060    -2.3360     2.9830 n8         1 3TP      -0.999200
     18 N21          1.1950    -2.7820     7.0190 nd         1 3TP      -0.739000
     19 N23          1.2270    -4.9700     7.6290 nc         1 3TP      -0.363300
     20 O24          0.1350    -4.7370     6.7670 os         1 3TP      -0.069700
     21 C28          5.4210    -3.1270    10.0180 ca         1 3TP      -0.250500
     22 S34          6.9400    -2.8540    10.9560 sy         1 3TP       1.055500
     23 O35          7.0510    -1.4250    11.2780 o          1 3TP      -0.520000
     24 O36          7.0470    -3.8820    11.9990 o          1 3TP      -0.520000
     25 C37          8.2250    -3.2070     9.7570 c3         1 3TP      -0.337100
     26 C44         -1.4280    -1.5470     5.9260 c3         1 3TP      -0.084100
     27 H2           0.5990    -1.8320     4.0990 h1         1 3TP       0.080700
     28 H11          4.7060    -4.1940     2.5990 hc         1 3TP       0.055450
     29 H12          4.3050    -3.6460     5.6240 hc         1 3TP       0.055450
     30 H13          2.5690    -2.0650     4.9120 h1         1 3TP       0.056200
     31 H26          3.2100    -5.6120     9.2390 ha         1 3TP       0.138500
     32 H27          5.2680    -5.2360    10.5310 ha         1 3TP       0.140500
     33 H29          5.2790    -1.0760     9.3040 ha         1 3TP       0.140500
     34 H30          3.2200    -1.4530     8.0110 ha         1 3TP       0.138500
     35 H1          -1.5630    -3.5970     5.3040 hc         1 3TP       0.099700
     36 HN61        -1.6610    -3.1760     2.7700 hn         1 3TP       0.413500
     37 HN62        -0.6330    -2.1480     2.0890 hn         1 3TP       0.413500
     38 H371         8.1080    -2.5150     8.9170 h1         1 3TP       0.103700
     39 H372         9.1950    -3.0660    10.2450 h1         1 3TP       0.103700
     40 H373         8.1050    -4.2430     9.4240 h1         1 3TP       0.103700
     41 H441        -0.6880    -0.7430     6.0240 hc         1 3TP       0.053033
     42 H442        -1.8930    -1.7040     6.9070 hc         1 3TP       0.053033
     43 H443        -2.2110    -1.2080     5.2370 hc         1 3TP       0.053033
     44 H10A         2.9330    -5.8200     4.5300 h1         1 3TP       0.056200
     45 H11A         5.2380    -5.2380     3.9220 hc         1 3TP       0.055450
     46 H12A         5.1720    -2.6100     4.4830 hc         1 3TP       0.055450
     47 H13A         3.0950    -2.1210     3.2120 h1         1 3TP       0.056200
     48 H10          2.7870    -5.6770     2.7600 h1         1 3TP       0.056200
@<TRIPOS>BOND
     1     1     2 1   
     2     1    15 1   
     3     1    17 1   
     4     1    27 1   
     5     2     3 2   
     6     2    16 1   
     7     4     5 1   
     8     4    16 1   
     9     4    44 1   
    10     4    48 1   
    11     5     6 1   
    12     5    28 1   
    13     5    45 1   
    14     6     7 1   
    15     6    29 1   
    16     6    46 1   
    17     7    16 1   
    18     7    30 1   
    19     7    47 1   
    20     8    15 1   
    21     8    18 2   
    22     8    20 1   
    23     9    10 1   
    24     9    18 1   
    25     9    19 2   
    26    10    11 ar  
    27    10    14 ar  
    28    11    12 ar  
    29    11    31 1   
    30    12    21 ar  
    31    12    32 1   
    32    13    14 ar  
    33    13    21 ar  
    34    13    33 1   
    35    14    34 1   
    36    15    26 1   
    37    15    35 1   
    38    17    36 1   
    39    17    37 1   
    40    19    20 1   
    41    21    22 1   
    42    22    23 2   
    43    22    24 2   
    44    22    25 1   
    45    25    38 1   
    46    25    39 1   
    47    25    40 1   
    48    26    41 1   
    49    26    42 1   
    50    26    43 1   
@<TRIPOS>SUBSTRUCTURE
     1 3TP         1 TEMP              0 ****  ****    0 ROOT
