@<TRIPOS>MOLECULE
3TQ
   60    63     1     0     0
SMALL
abcg2


@<TRIPOS>ATOM
      1 C4           4.8830    -3.2610    -0.6290 c3         1 3TQ       0.170800
      2 C6           5.0840    -1.0760    -1.5700 c6         1 3TQ       0.171800
      3 C7           5.0100     0.4200    -1.3030 c6         1 3TQ      -0.059900
      4 C8           3.6030     0.8010    -0.8640 c6         1 3TQ       0.001600
      5 C10          3.3220    -1.5220    -0.0210 c6         1 3TQ       0.171800
      6 C13          1.8720     2.7570    -0.0410 ca         1 3TQ      -0.060500
      7 C15          0.1980     3.1540     1.6190 ca         1 3TQ      -0.108500
      8 C17         -0.4360     2.8230    -0.6710 ca         1 3TQ      -0.108500
      9 C21         -3.9760     1.8850    -0.1080 c          1 3TQ       0.643300
     10 C24         -5.6220     0.1530    -1.0070 cc         1 3TQ      -0.158200
     11 C26         -6.7460    -2.2200    -1.0720 ca         1 3TQ      -0.101000
     12 C1           5.0660    -5.5770     0.2570 c3         1 3TQ      -0.084600
     13 C2           4.7240    -4.1340     0.6160 c3         1 3TQ      -0.059700
     14 C3           5.5880    -3.6320     1.7650 c3         1 3TQ      -0.084600
     15 N5           4.6830    -1.8420    -0.4060 n3         1 3TQ      -0.713600
     16 C9           3.1680    -0.0450     0.3170 c6         1 3TQ      -0.059900
     17 S11          3.5950     2.5970    -0.4970 sx         1 3TQ       0.220200
     18 O12          4.4080     2.7950     0.7590 o          1 3TQ      -0.505000
     19 C14          1.5370     3.0040     1.2780 ca         1 3TQ      -0.049500
     20 C16         -0.7970     3.0620     0.6550 ca         1 3TQ      -0.088300
     21 C18          0.8930     2.6810    -1.0260 ca         1 3TQ      -0.049500
     22 C19         -2.2490     3.2190     1.0250 c3         1 3TQ       0.141300
     23 N20         -2.9960     2.0010     0.7980 ns         1 3TQ      -0.490900
     24 O22         -4.3480     2.7750    -0.8590 o          1 3TQ      -0.588100
     25 C23         -4.6340     0.5610    -0.1790 cd         1 3TQ      -0.047100
     26 C25         -5.8830    -1.2080    -0.6510 ca         1 3TQ      -0.095800
     27 C27         -6.6480    -3.4310    -0.4140 ca         1 3TQ       0.309900
     28 N28         -5.7900    -3.6880     0.5830 nb         1 3TQ      -0.647000
     29 C29         -4.9650    -2.7410     0.9950 ca         1 3TQ       0.356900
     30 C30         -5.0010    -1.4980     0.3880 ca         1 3TQ       0.008100
     31 O31         -4.2420    -0.4200     0.6730 os         1 3TQ      -0.167200
     32 H1           5.9050    -3.3950    -1.0000 h1         1 3TQ       0.028200
     33 H2           4.2160    -3.6440    -1.4230 h1         1 3TQ       0.028200
     34 H3           4.4660    -1.3210    -2.4530 h1         1 3TQ       0.029950
     35 H4           6.1120    -1.3390    -1.8260 h1         1 3TQ       0.029950
     36 H5           5.7230     0.6760    -0.5150 hc         1 3TQ       0.058700
     37 H6           5.2990     0.9660    -2.2040 hc         1 3TQ       0.058700
     38 H7           2.9070     0.6880    -1.7020 h1         1 3TQ       0.072700
     39 H8           2.6040    -1.7880    -0.8190 h1         1 3TQ       0.029950
     40 H9           3.0450    -2.1060     0.8570 h1         1 3TQ       0.029950
     41 H10         -0.0700     3.3410     2.6510 ha         1 3TQ       0.119500
     42 H11         -1.2000     2.7620    -1.4370 ha         1 3TQ       0.119500
     43 H13         -7.4600    -2.0770    -1.8700 ha         1 3TQ       0.133000
     44 H14          6.1120    -5.6690    -0.0460 hc         1 3TQ       0.034200
     45 H15          4.9090    -6.2410     1.1080 hc         1 3TQ       0.034200
     46 H16          4.4500    -5.9420    -0.5670 hc         1 3TQ       0.034200
     47 H17          3.6760    -4.1180     0.9350 hc         1 3TQ       0.042700
     48 H18          5.2960    -2.6320     2.0860 hc         1 3TQ       0.034200
     49 H19          5.5160    -4.2970     2.6280 hc         1 3TQ       0.034200
     50 H20          6.6390    -3.5900     1.4680 hc         1 3TQ       0.034200
     51 H22          3.7810     0.1990     1.1880 hc         1 3TQ       0.058700
     52 H23          2.1270     0.1520     0.5780 hc         1 3TQ       0.058700
     53 H25          2.3050     3.0690     2.0360 ha         1 3TQ       0.131000
     54 H26          1.1580     2.5160    -2.0640 ha         1 3TQ       0.131000
     55 H27         -2.3420     3.5020     2.0750 h1         1 3TQ       0.070200
     56 H28         -2.7040     4.0140     0.4360 h1         1 3TQ       0.070200
     57 H29         -2.7480     1.2040     1.3640 hn         1 3TQ       0.332500
     58 H30         -7.2960    -4.2510    -0.7010 h4         1 3TQ       0.025100
     59 H31         -4.2790    -2.9700     1.8040 h4         1 3TQ       0.037100
     60 H12         -6.1040     0.7410    -1.7700 ha         1 3TQ       0.235000
@<TRIPOS>BOND
     1     1    13 1   
     2     1    15 1   
     3     1    32 1   
     4     1    33 1   
     5     2     3 1   
     6     2    15 1   
     7     2    34 1   
     8     2    35 1   
     9     3     4 1   
    10     3    36 1   
    11     3    37 1   
    12     4    16 1   
    13     4    17 1   
    14     4    38 1   
    15     5    15 1   
    16     5    16 1   
    17     5    39 1   
    18     5    40 1   
    19     6    17 1   
    20     6    19 ar  
    21     6    21 ar  
    22     7    19 ar  
    23     7    20 ar  
    24     7    41 1   
    25     8    20 ar  
    26     8    21 ar  
    27     8    42 1   
    28     9    23 1   
    29     9    24 2   
    30     9    25 1   
    31    10    25 2   
    32    10    26 1   
    33    10    60 1   
    34    11    26 ar  
    35    11    27 ar  
    36    11    43 1   
    37    12    13 1   
    38    12    44 1   
    39    12    45 1   
    40    12    46 1   
    41    13    14 1   
    42    13    47 1   
    43    14    48 1   
    44    14    49 1   
    45    14    50 1   
    46    16    51 1   
    47    16    52 1   
    48    17    18 2   
    49    19    53 1   
    50    20    22 1   
    51    21    54 1   
    52    22    23 1   
    53    22    55 1   
    54    22    56 1   
    55    23    57 1   
    56    25    31 1   
    57    26    30 ar  
    58    27    28 ar  
    59    27    58 1   
    60    28    29 ar  
    61    29    30 ar  
    62    29    59 1   
    63    30    31 1   
@<TRIPOS>SUBSTRUCTURE
     1 3TQ         1 TEMP              0 ****  ****    0 ROOT
