@<TRIPOS>MOLECULE
3TQ
   60    63     1     0     0
SMALL
No Charge or Current Charge


@<TRIPOS>ATOM
      1 C4           4.6520    -3.2660    -0.7860 c3         1 3TQ       0.170800
      2 C6           5.0670    -0.9590    -1.5330 c6         1 3TQ       0.171800
      3 C7           5.0920     0.5310    -1.1220 c6         1 3TQ      -0.059900
      4 C8           3.6900     1.0170    -0.6840 c6         1 3TQ       0.001600
      5 C10          3.1820    -1.4030    -0.0220 c6         1 3TQ       0.171800
      6 C13          1.8710     3.0380     0.0610 ca         1 3TQ      -0.060500
      7 C15         -0.0250     3.0790     1.5900 ca         1 3TQ      -0.108500
      8 C17         -0.3720     3.4610    -0.7870 ca         1 3TQ      -0.108500
      9 C21         -3.6580     1.7030    -0.4660 c          1 3TQ       0.643300
     10 C24         -4.8970    -0.4250    -1.2220 cc         1 3TQ      -0.158200
     11 C26         -5.9310    -2.7970    -0.9160 ca         1 3TQ      -0.101000
     12 C1           4.4990    -5.7270    -0.1250 c3         1 3TQ      -0.084600
     13 C2           4.3680    -4.2690     0.3690 c3         1 3TQ      -0.059700
     14 C3           5.2680    -4.0200     1.6030 c3         1 3TQ      -0.084600
     15 N5           4.5510    -1.8240    -0.4380 n3         1 3TQ      -0.713600
     16 C9           3.1460     0.0780     0.4240 c6         1 3TQ      -0.059900
     17 S11          3.6660     2.8280    -0.2580 sx         1 3TQ       0.220200
     18 O12          4.4070     3.0010     1.0580 o          1 3TQ      -0.505000
     19 C14          1.3540     2.9270     1.3660 ca         1 3TQ      -0.049500
     20 C16         -0.8960     3.3470     0.5160 ca         1 3TQ      -0.088300
     21 C18          1.0070     3.3090    -1.0140 ca         1 3TQ      -0.049500
     22 C19         -2.3900     3.5010     0.7580 c3         1 3TQ       0.141300
     23 N20         -3.0760     2.2110     0.6730 ns         1 3TQ      -0.490900
     24 O22         -3.6850     2.3140    -1.5270 o          1 3TQ      -0.588100
     25 C23         -4.2440     0.3470    -0.2660 cd         1 3TQ      -0.047100
     26 C25         -5.2600    -1.6360    -0.5150 ca         1 3TQ      -0.095800
     27 C27         -6.1150    -3.8030     0.0630 ca         1 3TQ       0.309900
     28 N28         -5.6760    -3.6940     1.3530 nb         1 3TQ      -0.647000
     29 C29         -5.0260    -2.5500     1.7140 ca         1 3TQ       0.356900
     30 C30         -4.8180    -1.5220     0.7800 ca         1 3TQ       0.008100
     31 O31         -4.1980    -0.3190     0.9410 os         1 3TQ      -0.167200
     32 H1           5.6670    -3.4730    -1.1530 h1         1 3TQ       0.028200
     33 H2           3.9670    -3.4890    -1.6150 h1         1 3TQ       0.028200
     34 H3           4.4440    -1.0730    -2.4320 h1         1 3TQ       0.029950
     35 H4           6.0880    -1.2620    -1.8070 h1         1 3TQ       0.029950
     36 H5           5.8090     0.6720    -0.3010 hc         1 3TQ       0.058700
     37 H6           5.4540     1.1380    -1.9620 hc         1 3TQ       0.058700
     38 H7           3.0200     0.9470    -1.5520 h1         1 3TQ       0.072700
     39 H8           2.4740    -1.5450    -0.8520 h1         1 3TQ       0.029950
     40 H9           2.8230    -2.0130     0.8180 h1         1 3TQ       0.029950
     41 H10         -0.4170     2.9850     2.6010 ha         1 3TQ       0.119500
     42 H11         -1.0350     3.6640    -1.6260 ha         1 3TQ       0.119500
     43 H13         -6.2970    -2.9280    -1.9310 ha         1 3TQ       0.133000
     44 H14          5.5240    -5.9380    -0.4550 hc         1 3TQ       0.034200
     45 H15          4.2440    -6.4330     0.6740 hc         1 3TQ       0.034200
     46 H16          3.8220    -5.9130    -0.9680 hc         1 3TQ       0.034200
     47 H17          3.3270    -4.1430     0.6870 hc         1 3TQ       0.042700
     48 H18          5.1070    -3.0140     2.0100 hc         1 3TQ       0.034200
     49 H19          5.0440    -4.7420     2.3980 hc         1 3TQ       0.034200
     50 H20          6.3280    -4.1170     1.3390 hc         1 3TQ       0.034200
     51 H22          3.7390     0.1980     1.3410 hc         1 3TQ       0.058700
     52 H23          2.1130     0.3440     0.6800 hc         1 3TQ       0.058700
     53 H25          2.0170     2.7170     2.2020 ha         1 3TQ       0.131000
     54 H26          1.4020     3.3960    -2.0240 ha         1 3TQ       0.131000
     55 H27         -2.5600     3.9260     1.7560 h1         1 3TQ       0.070200
     56 H28         -2.8190     4.1990     0.0260 h1         1 3TQ       0.070200
     57 H29         -3.1060     1.6190     1.4930 hn         1 3TQ       0.332500
     58 H30         -6.6300    -4.7290    -0.1920 h4         1 3TQ       0.025100
     59 H31         -4.6780    -2.4690     2.7430 h4         1 3TQ       0.037100
     60 H12         -5.0810    -0.1590    -2.2610 ha         1 3TQ       0.235000
@<TRIPOS>BOND
     1     1    13 1   
     2     1    15 1   
     3     1    32 1   
     4     1    33 1   
     5     2     3 1   
     6     2    15 1   
     7     2    34 1   
     8     2    35 1   
     9     3     4 1   
    10     3    36 1   
    11     3    37 1   
    12     4    16 1   
    13     4    17 1   
    14     4    38 1   
    15     5    15 1   
    16     5    16 1   
    17     5    39 1   
    18     5    40 1   
    19     6    17 1   
    20     6    19 ar  
    21     6    21 ar  
    22     7    19 ar  
    23     7    20 ar  
    24     7    41 1   
    25     8    20 ar  
    26     8    21 ar  
    27     8    42 1   
    28     9    23 1   
    29     9    24 2   
    30     9    25 1   
    31    10    25 2   
    32    10    26 1   
    33    10    60 1   
    34    11    26 ar  
    35    11    27 ar  
    36    11    43 1   
    37    12    13 1   
    38    12    44 1   
    39    12    45 1   
    40    12    46 1   
    41    13    14 1   
    42    13    47 1   
    43    14    48 1   
    44    14    49 1   
    45    14    50 1   
    46    16    51 1   
    47    16    52 1   
    48    17    18 2   
    49    19    53 1   
    50    20    22 1   
    51    21    54 1   
    52    22    23 1   
    53    22    55 1   
    54    22    56 1   
    55    23    57 1   
    56    25    31 1   
    57    26    30 ar  
    58    27    28 ar  
    59    27    58 1   
    60    28    29 ar  
    61    29    30 ar  
    62    29    59 1   
    63    30    31 1   
@<TRIPOS>SUBSTRUCTURE
     1 3TQ         1 TEMP              0 ****  ****    0 ROOT
