@<TRIPOS>MOLECULE
3TR
   10    10     1     0     0
SMALL
No Charge or Current Charge


@<TRIPOS>ATOM
      1 N1          -1.2630     0.6320    -0.0070 na         1 3TR      -0.199700
      2 N2           0.0070     1.1390     0.0600 nc         1 3TR      -0.593800
      3 C3           0.6960     0.0300     0.0940 cd         1 3TR       0.746900
      4 N4           0.0180    -1.1390     0.0450 nd         1 3TR      -0.740000
      5 C5          -1.2440    -0.7430    -0.0150 cc         1 3TR       0.437400
      6 N3A          2.0120     0.0320     0.1450 nv         1 3TR      -1.005900
      7 HN1         -2.0970     1.2140    -0.0480 hn         1 3TR       0.378000
      8 H5          -2.1350    -1.3590    -0.0660 h5         1 3TR       0.062100
      9 H3A1         2.4510     0.8960    -0.1420 hn         1 3TR       0.459000
     10 H3A2         2.4600    -0.8260    -0.1480 hn         1 3TR       0.459000
@<TRIPOS>BOND
     1     1     2 1   
     2     1     5 1   
     3     1     7 1   
     4     2     3 2   
     5     3     4 1   
     6     3     6 1   
     7     4     5 2   
     8     5     8 1   
     9     6     9 1   
    10     6    10 1   
@<TRIPOS>SUBSTRUCTURE
     1 3TR         1 TEMP              0 ****  ****    0 ROOT
