@<TRIPOS>MOLECULE
3TR
   10    10     1     0     0
SMALL
abcg2


@<TRIPOS>ATOM
      1 N1          -1.2930     0.6060    -0.0100 na         1 3TR      -0.199700
      2 N2          -0.0430     1.1070     0.0400 nc         1 3TR      -0.593800
      3 C3           0.6920     0.0150     0.0750 cd         1 3TR       0.746900
      4 N4          -0.0150    -1.1400     0.0460 nd         1 3TR      -0.740000
      5 C5          -1.2610    -0.7190    -0.0090 cc         1 3TR       0.437400
      6 N3A          2.0580     0.0310     0.1930 nv         1 3TR      -1.005900
      7 HN1         -2.0930     1.2160    -0.0510 hn         1 3TR       0.378000
      8 H5          -2.1460    -1.3340    -0.0500 h5         1 3TR       0.062100
      9 H3A1         2.4960     0.8800    -0.1290 hn         1 3TR       0.459000
     10 H3A2         2.5100    -0.7860    -0.1870 hn         1 3TR       0.459000
@<TRIPOS>BOND
     1     1     2 1   
     2     1     5 1   
     3     1     7 1   
     4     2     3 2   
     5     3     4 1   
     6     3     6 1   
     7     4     5 2   
     8     5     8 1   
     9     6     9 1   
    10     6    10 1   
@<TRIPOS>SUBSTRUCTURE
     1 3TR         1 TEMP              0 ****  ****    0 ROOT
