@<TRIPOS>MOLECULE
3TS
  100   104     1     0     0
SMALL
bcc


@<TRIPOS>ATOM
      1 C1           1.0600    -2.2960     2.1470 c6         1 3TS       0.343900
      2 O1           0.6490    -2.6560     0.8630 os         1 3TS      -0.419600
      3 C2           0.3420    -1.0460     2.6600 c6         1 3TS       0.101500
      4 N2          -1.0930    -1.2500     2.6140 n8         1 3TS      -0.880800
      5 C3           0.7490     0.1970     1.8720 c6         1 3TS       0.142100
      6 O3           0.3430     1.3810     2.5070 oh         1 3TS      -0.653800
      7 C4           2.2660     0.2890     1.7250 c6         1 3TS       0.129100
      8 O4           2.6010     1.2320     0.7300 os         1 3TS      -0.423600
      9 C5           2.8840    -1.0450     1.3030 c6         1 3TS       0.146100
     10 O5           2.4460    -2.0800     2.1670 os         1 3TS      -0.413600
     11 C6           4.3970    -1.0360     1.3180 c3         1 3TS       0.143400
     12 O6           4.8660    -0.7330     2.6110 oh         1 3TS      -0.589800
     13 CAN          0.3330     4.4060    -0.9060 ca         1 3TS      -0.127000
     14 CAO          2.4510     5.5390    -1.1300 ca         1 3TS      -0.127000
     15 CAP          0.9270     3.4660    -0.0800 ca         1 3TS      -0.104500
     16 CAQ          3.0310     4.5840    -0.3030 ca         1 3TS      -0.104500
     17 CAU          2.9210     2.5370     1.1530 c3         1 3TS       0.197700
     18 CBD          1.1030     5.4360    -1.4240 ca         1 3TS       0.029400
     19 CBE          2.2830     3.5440     0.2350 ca         1 3TS      -0.094300
     20 CBF         -0.1250    -6.4190    -0.9340 c6         1 3TS       0.113500
     21 CAV          0.6550    -6.3990     0.3670 c6         1 3TS      -0.112400
     22 CBG          1.2820    -5.0320     0.6180 c6         1 3TS       0.136500
     23 CBV          0.1730    -3.9660     0.6580 c6         1 3TS       0.174100
     24 CBX         -0.5890    -3.9610    -0.6780 c6         1 3TS       0.166100
     25 CBK         -1.2030    -5.3380    -0.9190 c6         1 3TS       0.127100
     26 NAB         -0.7670    -7.6790    -1.2770 n8         1 3TS      -0.901800
     27 NAC          2.0270    -5.0930     1.8670 n8         1 3TS      -0.900800
     28 O7          -1.5680    -2.9480    -0.6060 os         1 3TS      -0.420600
     29 OAI         -1.9000    -5.3730    -2.1400 oh         1 3TS      -0.600800
     30 C10         -0.8330    -0.5690    -2.3950 c5         1 3TS       0.146100
     31 O9          -1.0910    -1.9420    -2.6580 os         1 3TS      -0.400600
     32 C7          -2.0830    -2.4310    -1.8000 c5         1 3TS       0.306900
     33 C8          -2.9270    -1.2120    -1.4300 c5         1 3TS       0.083100
     34 O2          -3.7820    -0.8500    -2.4820 oh         1 3TS      -0.577800
     35 C9          -1.8340    -0.1470    -1.3130 c5         1 3TS       0.127100
     36 O8          -2.2450     1.1670    -1.5910 os         1 3TS      -0.388600
     37 C11          0.6010    -0.3420    -1.9820 c3         1 3TS       0.119400
     38 O10          1.4430    -0.6190    -3.0780 oh         1 3TS      -0.591800
     39 CBO         -3.4950     2.8040     1.2840 c6         1 3TS       0.130100
     40 OAX         -2.5760     2.2400     0.3680 os         1 3TS      -0.419600
     41 CBR         -3.2110     1.7140    -0.7660 c6         1 3TS       0.354900
     42 CBH         -3.9480     2.7940    -1.5580 c6         1 3TS       0.136500
     43 NAD         -3.0100     3.7910    -2.0610 n8         1 3TS      -0.905800
     44 CBJ         -4.9470     3.5030    -0.6360 c6         1 3TS       0.104100
     45 OAH         -5.9760     2.5870    -0.3460 oh         1 3TS      -0.596800
     46 CBL         -4.2290     3.9820     0.6400 c6         1 3TS       0.098100
     47 OAJ         -3.3690     5.0580     0.3540 oh         1 3TS      -0.604800
     48 CAR         -2.7560     3.2070     2.5420 c3         1 3TS       0.153800
     49 NAA         -2.2400     2.0430     3.2560 n8         1 3TS      -0.896800
     50 H1           0.8800    -3.1130     2.8530 h2         1 3TS       0.083700
     51 H2           0.7190    -0.9040     3.6870 h1         1 3TS       0.040700
     52 HN2         -1.3610    -1.9250     3.3190 hn         1 3TS       0.342300
     53 HN2A        -1.5750    -0.3940     2.8610 hn         1 3TS       0.342300
     54 H3           0.3190     0.1130     0.8650 h1         1 3TS       0.058700
     55 HO3         -0.6350     1.4810     2.5470 ho         1 3TS       0.457000
     56 H4           2.6890     0.5760     2.6960 h1         1 3TS       0.072700
     57 H5           2.5880    -1.2580     0.2670 h1         1 3TS       0.061700
     58 H6           4.7500    -2.0200     0.9810 h1         1 3TS       0.030200
     59 H6A          4.7370    -0.3060     0.5750 h1         1 3TS       0.030200
     60 HO6          5.8150    -0.5900     2.5590 ho         1 3TS       0.401000
     61 HAN         -0.7200     4.3270    -1.1370 ha         1 3TS       0.151000
     62 HAO          3.0480     6.3410    -1.5420 ha         1 3TS       0.151000
     63 HAP          0.3100     2.6790     0.3310 ha         1 3TS       0.144500
     64 HAQ          4.0890     4.6600    -0.0790 ha         1 3TS       0.144500
     65 HAU          2.5790     2.7160     2.1760 h1         1 3TS       0.043200
     66 HAUA         4.0090     2.6790     1.1530 h1         1 3TS       0.043200
     67 HBF          0.5650    -6.1860    -1.7530 h1         1 3TS       0.072700
     68 HAVA         1.4420    -7.1580     0.3340 hc         1 3TS       0.049700
     69 HBG          1.9340    -4.7980    -0.2400 h1         1 3TS       0.030700
     70 HBV         -0.5270    -4.2330     1.4650 h1         1 3TS       0.054700
     71 HBX          0.1300    -3.7480    -1.4820 h1         1 3TS       0.072700
     72 HBK         -1.8900    -5.5490    -0.0800 h1         1 3TS       0.036700
     73 HNAC        -0.0730    -8.3610    -1.5530 hn         1 3TS       0.349300
     74 HNAD        -1.2410    -8.0640    -0.4680 hn         1 3TS       0.349300
     75 HNAE         2.6170    -5.9160     1.8480 hn         1 3TS       0.352800
     76 HNAF         2.6650    -4.3090     1.9340 hn         1 3TS       0.352800
     77 HOAI        -1.9410    -6.3180    -2.3600 ho         1 3TS       0.433000
     78 H10         -1.0400    -0.0020    -3.3110 h1         1 3TS       0.087700
     79 H7          -2.6540    -3.1830    -2.3510 h2         1 3TS       0.093700
     80 H8          -3.4700    -1.3710    -0.4930 h1         1 3TS       0.066700
     81 HO2         -4.5180    -1.4710    -2.5030 ho         1 3TS       0.406000
     82 H9          -1.3870    -0.2270    -0.3140 h1         1 3TS       0.089700
     83 H11          0.7020     0.7000    -1.6480 h1         1 3TS       0.041200
     84 H5'A         0.8230    -0.9850    -1.1230 h1         1 3TS       0.041200
     85 HO5          2.3530    -0.4920    -2.7960 ho         1 3TS       0.401000
     86 HBO         -4.2560     2.0550     1.5600 h1         1 3TS       0.033700
     87 HBR         -3.9470     0.9550    -0.4580 h2         1 3TS       0.046700
     88 HBH         -4.5020     2.2900    -2.3610 h1         1 3TS       0.066700
     89 HNAG        -2.2790     3.3440    -2.6000 hn         1 3TS       0.364300
     90 HNAH        -3.4890     4.4130    -2.7020 hn         1 3TS       0.364300
     91 HBJ         -5.3440     4.3850    -1.1620 h1         1 3TS       0.052700
     92 HOAH        -6.5990     3.0090     0.2550 ho         1 3TS       0.410000
     93 HBL         -4.9840     4.3430     1.3500 h1         1 3TS       0.058700
     94 HOAJ        -2.9150     4.8120    -0.4780 ho         1 3TS       0.452000
     95 HAR         -1.9190     3.8590     2.2860 h1         1 3TS       0.057200
     96 HARA        -3.4460     3.7960     3.1580 h1         1 3TS       0.057200
     97 HNAA        -1.8440     2.3420     4.1390 hn         1 3TS       0.343300
     98 HNAB        -3.0080     1.4280     3.5020 hn         1 3TS       0.343300
     99 CLA          0.3600     6.6160    -2.4600 cl         1 3TS      -0.128400
    100 HAV         -0.0020    -6.6570     1.2060 hc         1 3TS       0.049700
@<TRIPOS>BOND
     1     1     2 1   
     2     1     3 1   
     3     1    10 1   
     4     1    50 1   
     5     2    23 1   
     6     3     4 1   
     7     3     5 1   
     8     3    51 1   
     9     4    52 1   
    10     4    53 1   
    11     5     6 1   
    12     5     7 1   
    13     5    54 1   
    14     6    55 1   
    15     7     8 1   
    16     7     9 1   
    17     7    56 1   
    18     8    17 1   
    19     9    10 1   
    20     9    11 1   
    21     9    57 1   
    22    11    12 1   
    23    11    58 1   
    24    11    59 1   
    25    12    60 1   
    26    13    15 ar  
    27    13    18 ar  
    28    13    61 1   
    29    14    16 ar  
    30    14    18 ar  
    31    14    62 1   
    32    15    19 ar  
    33    15    63 1   
    34    16    19 ar  
    35    16    64 1   
    36    17    19 1   
    37    17    65 1   
    38    17    66 1   
    39    18    99 1   
    40    20    21 1   
    41    20    25 1   
    42    20    26 1   
    43    20    67 1   
    44    21    22 1   
    45    21    68 1   
    46    21   100 1   
    47    22    23 1   
    48    22    27 1   
    49    22    69 1   
    50    23    24 1   
    51    23    70 1   
    52    24    25 1   
    53    24    28 1   
    54    24    71 1   
    55    25    29 1   
    56    25    72 1   
    57    26    73 1   
    58    26    74 1   
    59    27    75 1   
    60    27    76 1   
    61    28    32 1   
    62    29    77 1   
    63    30    31 1   
    64    30    35 1   
    65    30    37 1   
    66    30    78 1   
    67    31    32 1   
    68    32    33 1   
    69    32    79 1   
    70    33    34 1   
    71    33    35 1   
    72    33    80 1   
    73    34    81 1   
    74    35    36 1   
    75    35    82 1   
    76    36    41 1   
    77    37    38 1   
    78    37    83 1   
    79    37    84 1   
    80    38    85 1   
    81    39    40 1   
    82    39    46 1   
    83    39    48 1   
    84    39    86 1   
    85    40    41 1   
    86    41    42 1   
    87    41    87 1   
    88    42    43 1   
    89    42    44 1   
    90    42    88 1   
    91    43    89 1   
    92    43    90 1   
    93    44    45 1   
    94    44    46 1   
    95    44    91 1   
    96    45    92 1   
    97    46    47 1   
    98    46    93 1   
    99    47    94 1   
   100    48    49 1   
   101    48    95 1   
   102    48    96 1   
   103    49    97 1   
   104    49    98 1   
@<TRIPOS>SUBSTRUCTURE
     1 3TS         1 TEMP              0 ****  ****    0 ROOT
