@<TRIPOS>MOLECULE
3TS
  100   104     1     0     0
SMALL
No Charge or Current Charge


@<TRIPOS>ATOM
      1 C1           2.3270    -2.5290     2.0220 c6         1 3TS       0.390300
      2 O1           1.7240    -2.9780     0.7770 os         1 3TS      -0.466000
      3 C2           1.4710    -1.5230     2.8920 c6         1 3TS       0.101500
      4 N2           0.2830    -2.1320     3.5860 n8         1 3TS      -0.991200
      5 C3           1.1240    -0.2430     2.0640 c6         1 3TS       0.165300
      6 O3           0.3720     0.6810     2.8820 oh         1 3TS      -0.776000
      7 C4           2.4410     0.4070     1.4960 c6         1 3TS       0.152300
      8 O4           2.1860     1.4840     0.5460 os         1 3TS      -0.470000
      9 C5           3.3370    -0.6710     0.8070 c6         1 3TS       0.169300
     10 O5           3.5390    -1.8400     1.6550 os         1 3TS      -0.460000
     11 C6           4.7450    -0.1070     0.4170 c3         1 3TS       0.166600
     12 O6           5.5720     0.2340     1.5490 oh         1 3TS      -0.712000
     13 CAN          0.5010     5.2560    -1.6260 ca         1 3TS      -0.109000
     14 CAO          2.9260     5.0640    -1.6850 ca         1 3TS      -0.109000
     15 CAP          0.4510     4.3110    -0.5860 ca         1 3TS      -0.086500
     16 CAQ          2.8780     4.1190    -0.6450 ca         1 3TS      -0.086500
     17 CAU          1.5840     2.7020     1.0240 c3         1 3TS       0.220900
     18 CBD          1.7380     5.6300    -2.1750 ca         1 3TS       0.121000
     19 CBE          1.6390     3.7360    -0.0920 ca         1 3TS      -0.094300
     20 CBF         -1.6340    -5.5730    -0.0890 c6         1 3TS       0.113500
     21 CAV         -1.1740    -5.5200     1.3790 c6         1 3TS      -0.112400
     22 CBG          0.2700    -4.9550     1.4650 c6         1 3TS       0.136500
     23 CBV          0.3770    -3.5340     0.7670 c6         1 3TS       0.197300
     24 CBX         -0.1130    -3.6200    -0.7210 c6         1 3TS       0.189300
     25 CBK         -1.5910    -4.1660    -0.7320 c6         1 3TS       0.150300
     26 NAB         -2.9960    -6.1480    -0.2530 n8         1 3TS      -1.012200
     27 NAC          0.6780    -4.9890     2.8920 n8         1 3TS      -1.011200
     28 O7           0.1290    -2.3450    -1.4080 os         1 3TS      -0.467000
     29 OAI         -2.2140    -4.3510    -2.0040 oh         1 3TS      -0.723000
     30 C10         -0.0590     0.2770    -2.9550 c5         1 3TS       0.169300
     31 O9           0.2310    -1.0870    -3.3700 os         1 3TS      -0.447000
     32 C7          -0.5940    -2.0040    -2.6160 c5         1 3TS       0.353300
     33 C8          -1.8650    -1.1660    -2.2250 c5         1 3TS       0.106300
     34 O2          -2.7810    -1.0050    -3.3360 oh         1 3TS      -0.700000
     35 C9          -1.1130     0.1500    -1.8170 c5         1 3TS       0.150300
     36 O8          -2.0130     1.2930    -1.8610 os         1 3TS      -0.435000
     37 C11          1.2390     1.0230    -2.5460 c3         1 3TS       0.142600
     38 O10          2.0610     1.3270    -3.6900 oh         1 3TS      -0.714000
     39 CBO         -3.6610     1.3270     1.4110 c6         1 3TS       0.153300
     40 OAX         -2.6150     1.3550     0.4050 os         1 3TS      -0.466000
     41 CBR         -3.1270     1.2830    -0.9460 c6         1 3TS       0.401300
     42 CBH         -4.0690     2.5130    -1.2410 c6         1 3TS       0.136500
     43 NAD         -3.3270     3.8310    -1.2600 n8         1 3TS      -1.016200
     44 CBJ         -5.2250     2.5380    -0.1880 c6         1 3TS       0.127300
     45 OAH         -6.0920     1.4010    -0.3580 oh         1 3TS      -0.659000
     46 CBL         -4.5990     2.5730     1.2440 c6         1 3TS       0.121300
     47 OAJ         -3.8510     3.7970     1.3610 oh         1 3TS      -0.727000
     48 CAR         -3.0080     1.2630     2.8330 c3         1 3TS       0.153800
     49 NAA         -2.2230     0.0280     3.1210 n8         1 3TS      -1.007200
     50 H1           2.5970    -3.3960     2.6410 h2         1 3TS       0.083700
     51 H2           2.1340    -1.2010     3.7100 h1         1 3TS       0.040700
     52 HN2          0.2990    -3.1510     3.4040 hn         1 3TS       0.397500
     53 HN2A         0.4230    -2.0710     4.5990 hn         1 3TS       0.397500
     54 H3           0.5100    -0.5510     1.2050 h1         1 3TS       0.058700
     55 HO3         -0.5680     0.3150     2.9220 ho         1 3TS       0.556000
     56 H4           3.0090     0.8220     2.3410 h1         1 3TS       0.072700
     57 H5           2.8470    -0.9880    -0.1250 h1         1 3TS       0.061700
     58 H6           5.2480    -0.8680    -0.1950 h1         1 3TS       0.030200
     59 H6A          4.6020     0.7730    -0.2260 h1         1 3TS       0.030200
     60 HO6          6.4570     0.4840     1.1940 ho         1 3TS       0.500000
     61 HAN         -0.4170     5.6980    -2.0060 ha         1 3TS       0.133000
     62 HAO          3.8820     5.3570    -2.1120 ha         1 3TS       0.133000
     63 HAP         -0.5110     4.0220    -0.1670 ha         1 3TS       0.126500
     64 HAQ          3.8000     3.6800    -0.2710 ha         1 3TS       0.126500
     65 HAU          0.5350     2.5430     1.3000 h1         1 3TS       0.043200
     66 HAUA         2.1200     3.0870     1.9020 h1         1 3TS       0.043200
     67 HBF         -0.9410    -6.2250    -0.6480 h1         1 3TS       0.072700
     68 HAVA        -1.2090    -6.5300     1.8120 hc         1 3TS       0.049700
     69 HBG          0.9320    -5.6560     0.9340 h1         1 3TS       0.030700
     70 HBV         -0.3030    -2.8350     1.2670 h1         1 3TS       0.054700
     71 HBX          0.5080    -4.3710    -1.2320 h1         1 3TS       0.072700
     72 HBK         -2.2100    -3.4920    -0.1210 h1         1 3TS       0.036700
     73 HNAC        -2.9710    -7.1440     0.0080 hn         1 3TS       0.404500
     74 HNAD        -3.6180    -5.7460     0.4620 hn         1 3TS       0.404500
     75 HNAE         0.1440    -5.7270     3.3670 hn         1 3TS       0.408000
     76 HNAF         1.6400    -5.3460     2.9470 hn         1 3TS       0.408000
     77 HOAI        -2.7900    -5.1380    -1.7850 ho         1 3TS       0.532000
     78 H10         -0.5050     0.8030    -3.8100 h1         1 3TS       0.087700
     79 H7          -0.8090    -2.8940    -3.2200 h2         1 3TS       0.093700
     80 H8          -2.3840    -1.5970    -1.3600 h1         1 3TS       0.066700
     81 HO2         -3.1630    -1.8930    -3.5270 ho         1 3TS       0.505000
     82 H9          -0.6430     0.0740    -0.8270 h1         1 3TS       0.089700
     83 H11          0.9500     1.9520    -2.0370 h1         1 3TS       0.041200
     84 H5'A         1.7890     0.4040    -1.8250 h1         1 3TS       0.041200
     85 HO5          2.8480     1.8170    -3.3570 ho         1 3TS       0.500000
     86 HBO         -4.2520     0.4090     1.2780 h1         1 3TS       0.033700
     87 HBR         -3.7040     0.3550    -1.0720 h2         1 3TS       0.046700
     88 HBH         -4.4990     2.3650    -2.2440 h1         1 3TS       0.066700
     89 HNAG        -2.4270     3.6550    -1.7310 hn         1 3TS       0.419500
     90 HNAH        -3.7990     4.4650    -1.9200 hn         1 3TS       0.419500
     91 HBJ         -5.8090     3.4590    -0.3390 h1         1 3TS       0.052700
     92 HOAH        -6.9500     1.6210     0.0710 ho         1 3TS       0.449000
     93 HBL         -5.3980     2.5350     1.9990 h1         1 3TS       0.058700
     94 HOAJ        -3.5040     3.9250     0.4210 ho         1 3TS       0.551000
     95 HAR         -2.3640     2.1410     2.9830 h1         1 3TS       0.057200
     96 HARA        -3.8240     1.3210     3.5680 h1         1 3TS       0.057200
     97 HNAA        -2.1540    -0.0890     4.1410 hn         1 3TS       0.398500
     98 HNAB        -2.7760    -0.7900     2.8390 hn         1 3TS       0.398500
     99 ClA          1.7990     6.8120    -3.4760 cl         1 3TS      -0.220000
    100 HAV         -1.8600    -4.8950     1.9680 hc         1 3TS       0.049700
@<TRIPOS>BOND
     1     1     2 1   
     2     1     3 1   
     3     1    10 1   
     4     1    50 1   
     5     2    23 1   
     6     3     4 1   
     7     3     5 1   
     8     3    51 1   
     9     4    52 1   
    10     4    53 1   
    11     5     6 1   
    12     5     7 1   
    13     5    54 1   
    14     6    55 1   
    15     7     8 1   
    16     7     9 1   
    17     7    56 1   
    18     8    17 1   
    19     9    10 1   
    20     9    11 1   
    21     9    57 1   
    22    11    12 1   
    23    11    58 1   
    24    11    59 1   
    25    12    60 1   
    26    13    15 ar  
    27    13    18 ar  
    28    13    61 1   
    29    14    16 ar  
    30    14    18 ar  
    31    14    62 1   
    32    15    19 ar  
    33    15    63 1   
    34    16    19 ar  
    35    16    64 1   
    36    17    19 1   
    37    17    65 1   
    38    17    66 1   
    39    18    99 1   
    40    20    21 1   
    41    20    25 1   
    42    20    26 1   
    43    20    67 1   
    44    21    22 1   
    45    21    68 1   
    46    21   100 1   
    47    22    23 1   
    48    22    27 1   
    49    22    69 1   
    50    23    24 1   
    51    23    70 1   
    52    24    25 1   
    53    24    28 1   
    54    24    71 1   
    55    25    29 1   
    56    25    72 1   
    57    26    73 1   
    58    26    74 1   
    59    27    75 1   
    60    27    76 1   
    61    28    32 1   
    62    29    77 1   
    63    30    31 1   
    64    30    35 1   
    65    30    37 1   
    66    30    78 1   
    67    31    32 1   
    68    32    33 1   
    69    32    79 1   
    70    33    34 1   
    71    33    35 1   
    72    33    80 1   
    73    34    81 1   
    74    35    36 1   
    75    35    82 1   
    76    36    41 1   
    77    37    38 1   
    78    37    83 1   
    79    37    84 1   
    80    38    85 1   
    81    39    40 1   
    82    39    46 1   
    83    39    48 1   
    84    39    86 1   
    85    40    41 1   
    86    41    42 1   
    87    41    87 1   
    88    42    43 1   
    89    42    44 1   
    90    42    88 1   
    91    43    89 1   
    92    43    90 1   
    93    44    45 1   
    94    44    46 1   
    95    44    91 1   
    96    45    92 1   
    97    46    47 1   
    98    46    93 1   
    99    47    94 1   
   100    48    49 1   
   101    48    95 1   
   102    48    96 1   
   103    49    97 1   
   104    49    98 1   
@<TRIPOS>SUBSTRUCTURE
     1 3TS         1 TEMP              0 ****  ****    0 ROOT
