@<TRIPOS>MOLECULE
3TT
   38    39     1     0     0
SMALL
bcc


@<TRIPOS>ATOM
      1 O3G         -2.5770     3.9290    -0.9240 o          1 3TT      -0.923167
      2 PG          -2.2830     3.2570     0.4140 p5         1 3TT       1.314800
      3 O1G         -1.0690     3.8790     1.1520 o          1 3TT      -0.923167
      4 O2G         -3.4850     3.1130     1.3410 o          1 3TT      -0.923167
      5 N3B         -1.8000     1.6380    -0.0770 n7         1 3TT      -0.934400
      6 PB          -1.8960     0.2980     0.9290 p5         1 3TT       1.450700
      7 O2B         -1.4380     0.6780     2.3090 o          1 3TT      -0.889000
      8 O1B         -3.1770    -0.4800     0.7660 o          1 3TT      -0.889000
      9 O3A         -0.6990    -0.6310     0.2100 os         1 3TT      -0.714800
     10 PA          -0.6160    -2.2500     0.2660 p5         1 3TT       1.469800
     11 O1A         -1.2970    -2.8400    -0.9310 o          1 3TT      -0.872500
     12 O2A         -0.9010    -2.7800     1.6390 o          1 3TT      -0.872500
     13 O5           1.0180    -2.3640    -0.0200 os         1 3TT      -0.560200
     14 C5           1.8460    -3.1120     0.8250 c3         1 3TT       0.216400
     15 C4           3.3020    -2.8690     0.4860 c5         1 3TT       0.286200
     16 O4           3.7100    -1.5530     0.7880 os         1 3TT      -0.419600
     17 S3           3.7090    -3.1520    -1.2710 ss         1 3TT      -0.503200
     18 C2           3.4700    -1.3940    -1.5930 c5         1 3TT       0.014700
     19 C1           3.9550    -0.7170    -0.3090 c5         1 3TT       0.337500
     20 N1           3.2890     0.5640    -0.0950 n          1 3TT      -0.415000
     21 C8           3.7600     1.6740    -0.8110 c          1 3TT       0.853900
     22 O2           4.7680     1.5390    -1.5050 o          1 3TT      -0.797500
     23 N3           3.0830     2.8310    -0.7280 nc         1 3TT      -0.887100
     24 C7           1.9660     2.9180    -0.0090 cd         1 3TT       0.757500
     25 N4           1.2720     4.0460     0.0110 nv         1 3TT      -0.901800
     26 C3           1.4810     1.8120     0.7560 cd         1 3TT      -0.314600
     27 C6           2.1620     0.6600     0.6620 cc         1 3TT       0.021600
     28 H3          -2.0790     1.4500    -1.0310 hn         1 3TT       0.353800
     29 H6           1.6980    -2.8570     1.8810 h1         1 3TT       0.013700
     30 H7           1.6670    -4.1900     0.7300 h1         1 3TT       0.013700
     31 H8           3.9040    -3.5620     1.0790 h2         1 3TT       0.026700
     32 H9           4.0710    -1.0860    -2.4450 h1         1 3TT       0.102700
     33 H10          2.4230    -1.1710    -1.7860 h1         1 3TT       0.102700
     34 H11          5.0260    -0.5190    -0.3760 h2         1 3TT       0.054700
     35 H12          1.5760     4.7990    -0.5840 hn         1 3TT       0.457300
     36 H13          0.2950     4.0410     0.4450 hn         1 3TT       0.457300
     37 H14          0.5680     1.8770     1.3260 ha         1 3TT       0.252000
     38 H15          1.8370    -0.2250     1.1800 h4         1 3TT       0.184000
@<TRIPOS>BOND
     1     1     2 1   
     2     2     3 1   
     3     2     4 1   
     4     2     5 1   
     5     5     6 1   
     6     5    28 1   
     7     6     7 1   
     8     6     8 1   
     9     6     9 1   
    10     9    10 1   
    11    10    11 1   
    12    10    12 1   
    13    10    13 1   
    14    13    14 1   
    15    14    15 1   
    16    14    29 1   
    17    14    30 1   
    18    15    16 1   
    19    15    17 1   
    20    15    31 1   
    21    16    19 1   
    22    17    18 1   
    23    18    19 1   
    24    18    32 1   
    25    18    33 1   
    26    19    20 1   
    27    19    34 1   
    28    20    21 1   
    29    20    27 1   
    30    21    22 2   
    31    21    23 1   
    32    23    24 2   
    33    24    25 1   
    34    24    26 1   
    35    25    35 1   
    36    25    36 1   
    37    26    27 2   
    38    26    37 1   
    39    27    38 1   
@<TRIPOS>SUBSTRUCTURE
     1 3TT         1 TEMP              0 ****  ****    0 ROOT
