@<TRIPOS>MOLECULE
3TT
   38    39     1     0     0
SMALL
No Charge or Current Charge


@<TRIPOS>ATOM
      1 O3G         -2.9230     2.7010    -1.0250 o          1 3TT      -0.923167
      2 PG          -2.0810     2.7200     0.1880 p5         1 3TT       1.314800
      3 O1G         -1.0560     3.7940     0.1300 o          1 3TT      -0.923167
      4 O2G         -2.8830     2.7860     1.4330 o          1 3TT      -0.923167
      5 N3B         -1.3160     1.3670    -0.0070 n7         1 3TT      -0.989600
      6 PB          -1.6540     0.0350     0.7920 p5         1 3TT       1.450700
      7 O2B         -1.3680     0.2090     2.2460 o          1 3TT      -0.889000
      8 O1B         -3.0470    -0.3320     0.4210 o          1 3TT      -0.889000
      9 O3A         -0.5340    -0.8010     0.0680 os         1 3TT      -0.714800
     10 PA          -0.7890    -2.3580     0.1290 p5         1 3TT       1.469800
     11 O1A         -1.6830    -2.8270    -0.9740 o          1 3TT      -0.872500
     12 O2A         -1.2040    -2.8920     1.4610 o          1 3TT      -0.872500
     13 O5           0.7190    -2.8240    -0.1970 os         1 3TT      -0.583400
     14 C5           1.6760    -2.9940     0.8660 c3         1 3TT       0.239600
     15 C4           3.1690    -2.8470     0.3670 c5         1 3TT       0.357300
     16 O4           3.7330    -1.5670     0.7760 os         1 3TT      -0.466000
     17 S3           3.3910    -2.9860    -1.4810 ss         1 3TT      -0.599000
     18 C2           3.0570    -1.1670    -1.5520 c5         1 3TT       0.062600
     19 C1           3.8690    -0.6370    -0.3370 c5         1 3TT       0.360700
     20 N1           3.3300     0.6980     0.0140 n          1 3TT      -0.348000
     21 C8           3.9160     1.8360    -0.5730 c          1 3TT       0.711400
     22 O2           4.9240     1.7760    -1.2550 o          1 3TT      -0.722000
     23 N3           3.3060     3.0500    -0.4010 nc         1 3TT      -0.887100
     24 C7           2.2310     3.1290     0.3150 cd         1 3TT       0.757500
     25 N4           1.6630     4.3110     0.3200 nv         1 3TT      -1.012200
     26 C3           1.6290     2.0470     0.9790 cd         1 3TT      -0.364600
     27 C6           2.1810     0.8080     0.7930 cc         1 3TT      -0.028400
     28 H3          -2.0390     1.1880    -0.6870 hn         1 3TT       0.409000
     29 H6           1.4970    -2.2830     1.6830 h1         1 3TT       0.013700
     30 H7           1.5660    -4.0020     1.2880 h1         1 3TT       0.013700
     31 H8           3.7530    -3.6460     0.8400 h2         1 3TT       0.026700
     32 H9           3.4000    -0.7280    -2.4970 h1         1 3TT       0.102700
     33 H10          1.9840    -0.9630    -1.4430 h1         1 3TT       0.102700
     34 H11          4.9300    -0.5340    -0.5920 h2         1 3TT       0.054700
     35 H12          2.0420     4.8920    -0.4090 hn         1 3TT       0.512500
     36 H13          0.6350     4.2300     0.2840 hn         1 3TT       0.512500
     37 H14          0.7210     2.1910     1.5490 ha         1 3TT       0.302000
     38 H15          1.7960    -0.1270     1.1880 h4         1 3TT       0.234000
@<TRIPOS>BOND
     1     1     2 1   
     2     2     3 1   
     3     2     4 1   
     4     2     5 1   
     5     5     6 1   
     6     5    28 1   
     7     6     7 1   
     8     6     8 1   
     9     6     9 1   
    10     9    10 1   
    11    10    11 1   
    12    10    12 1   
    13    10    13 1   
    14    13    14 1   
    15    14    15 1   
    16    14    29 1   
    17    14    30 1   
    18    15    16 1   
    19    15    17 1   
    20    15    31 1   
    21    16    19 1   
    22    17    18 1   
    23    18    19 1   
    24    18    32 1   
    25    18    33 1   
    26    19    20 1   
    27    19    34 1   
    28    20    21 1   
    29    20    27 1   
    30    21    22 2   
    31    21    23 1   
    32    23    24 2   
    33    24    25 1   
    34    24    26 1   
    35    25    35 1   
    36    25    36 1   
    37    26    27 2   
    38    26    37 1   
    39    27    38 1   
@<TRIPOS>SUBSTRUCTURE
     1 3TT         1 TEMP              0 ****  ****    0 ROOT
