@<TRIPOS>MOLECULE
3TU
   55    59     1     0     0
SMALL
No Charge or Current Charge


@<TRIPOS>ATOM
      1 C           -7.0560     0.6690     1.7150 c          1 3TU       0.721000
      2 N           -4.7950     0.6360     0.4870 n          1 3TU      -0.353800
      3 O           -6.8340     1.5510     2.5350 o          1 3TU      -0.737000
      4 N1           5.2850    -2.8760     0.1900 ns         1 3TU      -0.445400
      5 C2           6.2960    -2.9500    -0.6790 cc         1 3TU       0.739800
      6 N3           6.9160    -1.9620    -1.2570 nd         1 3TU      -0.708300
      7 C4           6.3570    -0.7120    -0.9840 cd         1 3TU       0.275200
      8 C5           5.2300    -0.5600    -0.1830 cc         1 3TU      -0.252400
      9 C6           4.6980    -1.7220     0.5540 c          1 3TU       0.608200
     10 O6           3.8560    -1.7120     1.4340 o          1 3TU      -0.523000
     11 CA          -6.2780     0.7270     0.3510 c3         1 3TU      -0.018300
     12 CB          -6.8320    -0.2470    -0.7300 c3         1 3TU      -0.053400
     13 CD          -6.9550    -0.9640    -3.1570 c          1 3TU       0.713000
     14 CG          -6.2230    -0.0610    -2.1450 c3         1 3TU      -0.199400
     15 NAA          6.7710    -4.1570    -0.9140 nv         1 3TU      -1.062200
     16 OAD         -4.7070    -1.1830     1.9850 o          1 3TU      -0.550000
     17 CAH          4.6500     3.6850    -0.0530 ca         1 3TU      -0.108000
     18 CAI         -0.3570    -0.1910     1.6840 ca         1 3TU      -0.204000
     19 CAJ          3.6130     2.8940     0.4680 ca         1 3TU      -0.102000
     20 CAK         -1.6640    -0.6640     1.9170 ca         1 3TU      -0.023000
     21 CAL          5.7480     3.0740    -0.6710 ca         1 3TU      -0.093000
     22 CAM         -1.2230     1.5400     0.1910 ca         1 3TU      -0.175000
     23 CAP          2.4240     0.6780     0.8340 c3         1 3TU       0.249100
     24 CAQ         -3.8300     1.5910    -0.1440 c5         1 3TU       0.143300
     25 NAT          1.1520     1.3890     0.5810 nu         1 3TU      -0.959200
     26 SAU          7.1130     0.7990    -1.5280 ss         1 3TU       0.073400
     27 CAX         -4.1680    -0.2960     1.3350 c          1 3TU       0.584600
     28 CAZ         -0.1340     0.9080     0.8220 ca         1 3TU       0.286000
     29 CBB         -2.5210     1.0630     0.4270 ca         1 3TU      -0.039300
     30 CBC          3.6630     1.4760     0.4100 ca         1 3TU      -0.039300
     31 CBD         -2.7230    -0.0130     1.2700 ca         1 3TU      -0.162600
     32 CBE          5.8220     1.6760    -0.6890 ca         1 3TU      -0.180000
     33 CBH          4.8500     0.8650    -0.1000 ca         1 3TU       0.006200
     34 OE1         -6.5440    -2.1030    -3.3190 o          1 3TU      -0.763000
     35 OE2         -7.9450    -0.5200    -3.7170 o          1 3TU      -0.763000
     36 OXT         -7.8990    -0.2020     1.8960 o          1 3TU      -0.737000
     37 HN1          4.9710    -3.7100     0.6550 hn         1 3TU       0.325500
     38 HA          -6.4780     1.7360    -0.0320 h1         1 3TU       0.013700
     39 HB          -6.6720    -1.2820    -0.4000 hc         1 3TU       0.062700
     40 HBA         -7.9180    -0.1050    -0.8000 hc         1 3TU       0.062700
     41 HG          -6.3670     0.9970    -2.3970 hc         1 3TU       0.003200
     42 HGA         -5.1690    -0.3570    -2.0640 hc         1 3TU       0.003200
     43 HNAA         6.0950    -4.9110    -0.9220 hn         1 3TU       0.507500
     44 HNAB         7.4400    -4.1810    -1.6750 hn         1 3TU       0.507500
     45 HAH          4.5810     4.7700    -0.0150 ha         1 3TU       0.111000
     46 HAI          0.4750    -0.6820     2.1790 ha         1 3TU       0.103000
     47 HAJ          2.7520     3.3960     0.9040 ha         1 3TU       0.137000
     48 HAK         -1.8460    -1.5090     2.5780 ha         1 3TU       0.121000
     49 HAL          6.5290     3.6780    -1.1290 ha         1 3TU       0.112000
     50 HAM         -1.0640     2.3860    -0.4720 ha         1 3TU       0.099000
     51 HAP          2.5130     0.4270     1.9000 h1         1 3TU       0.062700
     52 HAPA         2.3930    -0.2530     0.2540 h1         1 3TU       0.062700
     53 HAQ         -3.8480     1.5300    -1.2400 h1         1 3TU       0.054200
     54 HAQA        -4.0190     2.6260     0.1670 h1         1 3TU       0.054200
     55 HNAT         1.2020     2.1680    -0.0750 hn         1 3TU       0.451000
@<TRIPOS>BOND
     1     1     3 1   
     2     1    11 1   
     3     1    36 1   
     4     2    11 1   
     5     2    24 1   
     6     2    27 1   
     7     4     5 1   
     8     4     9 1   
     9     4    37 1   
    10     5     6 2   
    11     5    15 1   
    12     6     7 1   
    13     7     8 2   
    14     7    26 1   
    15     8     9 1   
    16     8    33 1   
    17     9    10 2   
    18    11    12 1   
    19    11    38 1   
    20    12    14 1   
    21    12    39 1   
    22    12    40 1   
    23    13    14 1   
    24    13    34 1   
    25    13    35 1   
    26    14    41 1   
    27    14    42 1   
    28    15    43 1   
    29    15    44 1   
    30    16    27 2   
    31    17    19 ar  
    32    17    21 ar  
    33    17    45 1   
    34    18    20 ar  
    35    18    28 ar  
    36    18    46 1   
    37    19    30 ar  
    38    19    47 1   
    39    20    31 ar  
    40    20    48 1   
    41    21    32 ar  
    42    21    49 1   
    43    22    28 ar  
    44    22    29 ar  
    45    22    50 1   
    46    23    25 1   
    47    23    30 1   
    48    23    51 1   
    49    23    52 1   
    50    24    29 1   
    51    24    53 1   
    52    24    54 1   
    53    25    28 1   
    54    25    55 1   
    55    26    32 1   
    56    27    31 1   
    57    29    31 ar  
    58    30    33 ar  
    59    32    33 ar  
@<TRIPOS>SUBSTRUCTURE
     1 3TU         1 TEMP              0 ****  ****    0 ROOT
