@<TRIPOS>MOLECULE
3TU
   55    59     1     0     0
SMALL
bcc


@<TRIPOS>ATOM
      1 C           -6.7770     0.8110     1.9260 c          1 3TU       0.931600
      2 N           -4.7890     0.6230     0.4660 n          1 3TU      -0.420800
      3 O           -6.0110     1.2640     2.7940 o          1 3TU      -0.842300
      4 N1           5.3150    -2.8870     0.0660 ns         1 3TU      -0.512400
      5 C2           6.5480    -2.9070    -0.4960 cc         1 3TU       0.739800
      6 N3           7.1780    -1.7990    -0.8100 nd         1 3TU      -0.708300
      7 C4           6.4910    -0.6760    -0.5960 cd         1 3TU       0.275200
      8 C5           5.1930    -0.5320    -0.1190 cc         1 3TU      -0.252400
      9 C6           4.5750    -1.7420     0.3620 c          1 3TU       0.750700
     10 O6           3.5420    -1.8720     0.9960 o          1 3TU      -0.598500
     11 CA          -6.2270     0.7740     0.4720 c3         1 3TU      -0.018300
     12 CB          -6.9220    -0.2170    -0.4580 c3         1 3TU      -0.053400
     13 CD          -7.1570    -1.0160    -2.9140 c          1 3TU       0.923600
     14 CG          -6.4520    -0.1010    -1.8980 c3         1 3TU      -0.199400
     15 NAA          7.1250    -4.0880    -0.7000 nv         1 3TU      -0.951800
     16 OAD         -4.6680    -1.3750     1.5980 o          1 3TU      -0.625500
     17 CAH          4.5730     3.6630     0.0140 ca         1 3TU      -0.126000
     18 CAI         -0.3390    -0.3250     1.1420 ca         1 3TU      -0.222000
     19 CAJ          3.4770     2.8540     0.3000 ca         1 3TU      -0.120000
     20 CAK         -1.6070    -0.8280     1.3840 ca         1 3TU      -0.041000
     21 CAL          5.7690     3.0940    -0.3700 ca         1 3TU      -0.111000
     22 CAM         -1.2960     1.6370     0.0760 ca         1 3TU      -0.193000
     23 CAP          2.2750     0.6570     0.4370 c3         1 3TU       0.249100
     24 CAQ         -3.9010     1.6600    -0.0070 c5         1 3TU       0.143300
     25 NAT          1.0810     1.4510     0.2700 nu         1 3TU      -0.765600
     26 SAU          7.2690     0.8400    -0.8910 ss         1 3TU      -0.053500
     27 CAX         -4.1460    -0.3980     1.0750 c          1 3TU       0.727100
     28 CAZ         -0.1630     0.9130     0.4920 ca         1 3TU       0.147600
     29 CBB         -2.5450     1.1160     0.3220 ca         1 3TU      -0.039300
     30 CBC          3.5320     1.4670     0.2410 ca         1 3TU      -0.039300
     31 CBD         -2.7090    -0.1020     0.9680 ca         1 3TU      -0.162600
     32 CBE          5.8450     1.7090    -0.3950 ca         1 3TU      -0.053100
     33 CBH          4.7750     0.8600    -0.0470 ca         1 3TU       0.006200
     34 OE1         -7.9980    -1.8310    -2.4880 o          1 3TU      -0.868300
     35 OE2         -6.8170    -0.8660    -4.1090 o          1 3TU      -0.868300
     36 OXT         -7.9580     0.4470     2.0830 o          1 3TU      -0.842300
     37 HN1          4.8940    -3.7610     0.3560 hn         1 3TU       0.325500
     38 HA          -6.4160     1.7790     0.0730 h1         1 3TU       0.013700
     39 HB          -6.7740    -1.2350    -0.0920 hc         1 3TU       0.062700
     40 HBA         -7.9940    -0.0260    -0.4030 hc         1 3TU       0.062700
     41 HG          -6.5670     0.9350    -2.2410 hc         1 3TU       0.003200
     42 HGA         -5.3760    -0.2990    -1.9640 hc         1 3TU       0.003200
     43 HNAA         6.6500    -4.9570    -0.5290 hn         1 3TU       0.452300
     44 HNAB         8.0220    -4.1220    -1.1540 hn         1 3TU       0.452300
     45 HAH          4.4750     4.7390     0.0660 ha         1 3TU       0.129000
     46 HAI          0.5190    -0.9080     1.4480 ha         1 3TU       0.121000
     47 HAJ          2.5430     3.3330     0.5630 ha         1 3TU       0.155000
     48 HAK         -1.7240    -1.7820     1.8830 ha         1 3TU       0.139000
     49 HAL          6.6210     3.7020    -0.6420 ha         1 3TU       0.130000
     50 HAM         -1.1720     2.5890    -0.4280 ha         1 3TU       0.117000
     51 HAP          2.2770     0.2330     1.4420 h1         1 3TU       0.062700
     52 HAPA         2.2810    -0.1920    -0.2530 h1         1 3TU       0.062700
     53 HAQ         -4.0260     1.8350    -1.0800 h1         1 3TU       0.054200
     54 HAQA        -4.0970     2.6090     0.5030 h1         1 3TU       0.054200
     55 HNAT         1.1110     2.1000    -0.5030 hn         1 3TU       0.395800
@<TRIPOS>BOND
     1     1     3 1   
     2     1    11 1   
     3     1    36 1   
     4     2    11 1   
     5     2    24 1   
     6     2    27 1   
     7     4     5 1   
     8     4     9 1   
     9     4    37 1   
    10     5     6 2   
    11     5    15 1   
    12     6     7 1   
    13     7     8 2   
    14     7    26 1   
    15     8     9 1   
    16     8    33 1   
    17     9    10 2   
    18    11    12 1   
    19    11    38 1   
    20    12    14 1   
    21    12    39 1   
    22    12    40 1   
    23    13    14 1   
    24    13    34 1   
    25    13    35 1   
    26    14    41 1   
    27    14    42 1   
    28    15    43 1   
    29    15    44 1   
    30    16    27 2   
    31    17    19 ar  
    32    17    21 ar  
    33    17    45 1   
    34    18    20 ar  
    35    18    28 ar  
    36    18    46 1   
    37    19    30 ar  
    38    19    47 1   
    39    20    31 ar  
    40    20    48 1   
    41    21    32 ar  
    42    21    49 1   
    43    22    28 ar  
    44    22    29 ar  
    45    22    50 1   
    46    23    25 1   
    47    23    30 1   
    48    23    51 1   
    49    23    52 1   
    50    24    29 1   
    51    24    53 1   
    52    24    54 1   
    53    25    28 1   
    54    25    55 1   
    55    26    32 1   
    56    27    31 1   
    57    29    31 ar  
    58    30    33 ar  
    59    32    33 ar  
@<TRIPOS>SUBSTRUCTURE
     1 3TU         1 TEMP              0 ****  ****    0 ROOT
