@<TRIPOS>MOLECULE
3TV
   27    27     1     0     0
SMALL
No Charge or Current Charge


@<TRIPOS>ATOM
      1 F18         -0.9850    -2.7110    -0.9730 f          1 3TV      -0.134000
      2 C7          -0.4150    -1.5230    -0.6610 ca         1 3TV       0.148000
      3 C6           0.9680    -1.4630    -0.3900 ca         1 3TV       0.236500
      4 F17          1.6820    -2.6100    -0.4590 f          1 3TV      -0.121000
      5 C8          -1.2120    -0.3630    -0.6070 ca         1 3TV      -0.126000
      6 S11         -2.9700    -0.4640    -0.9590 ss         1 3TV      -0.153000
      7 C12         -3.7560     0.0730     0.6240 c3         1 3TV       0.058600
      8 C13         -5.2910    -0.0160     0.5210 c3         1 3TV      -0.068400
      9 C14         -6.0060     0.4160     1.8160 c3         1 3TV      -0.089100
     10 C9          -0.6000     0.8670    -0.2940 ca         1 3TV       0.148000
     11 F15         -1.3390     2.0010    -0.2720 f          1 3TV      -0.134000
     12 C10          0.7820     0.9330    -0.0220 ca         1 3TV       0.236500
     13 F16          1.3260     2.1410     0.2550 f          1 3TV      -0.121000
     14 C5           1.5810    -0.2320    -0.0590 ca         1 3TV      -0.304500
     15 S1           3.3320    -0.1160     0.2890 sy         1 3TV       1.159600
     16 O3           3.5920     0.8810     1.3240 o          1 3TV      -0.524000
     17 O4           3.9830    -1.4210     0.3050 o          1 3TV      -0.524000
     18 N2           3.9170     0.5890    -1.0580 n8         1 3TV      -1.021100
     19 H1          -3.3980    -0.5750     1.4340 h1         1 3TV       0.068700
     20 H2          -3.4590     1.1060     0.8460 h1         1 3TV       0.068700
     21 H3          -5.6350     0.6160    -0.3070 hc         1 3TV       0.054700
     22 H4          -5.5780    -1.0470     0.2790 hc         1 3TV       0.054700
     23 H5          -5.7060    -0.2210     2.6570 hc         1 3TV       0.037700
     24 H6          -5.7630     1.4570     2.0640 hc         1 3TV       0.037700
     25 H7          -7.0930     0.3370     1.6970 hc         1 3TV       0.037700
     26 H8           4.6580    -0.0670    -1.2960 hn         1 3TV       0.486500
     27 H9           4.4410     1.3580    -0.6450 hn         1 3TV       0.486500
@<TRIPOS>BOND
     1     1     2 1   
     2     2     3 ar  
     3     2     5 ar  
     4     3     4 1   
     5     3    14 ar  
     6     5     6 1   
     7     5    10 ar  
     8     6     7 1   
     9     7     8 1   
    10     7    19 1   
    11     7    20 1   
    12     8     9 1   
    13     8    21 1   
    14     8    22 1   
    15     9    23 1   
    16     9    24 1   
    17     9    25 1   
    18    10    11 1   
    19    10    12 ar  
    20    12    13 1   
    21    12    14 ar  
    22    14    15 1   
    23    15    16 2   
    24    15    17 2   
    25    15    18 1   
    26    18    26 1   
    27    18    27 1   
@<TRIPOS>SUBSTRUCTURE
     1 3TV         1 TEMP              0 ****  ****    0 ROOT
