@<TRIPOS>MOLECULE
3TV
   27    27     1     0     0
SMALL
abcg2


@<TRIPOS>ATOM
      1 F18         -1.0570    -2.6190    -0.8140 f          1 3TV      -0.134000
      2 C7          -0.4710    -1.4550    -0.5700 ca         1 3TV       0.148000
      3 C6           0.8880    -1.4500    -0.2970 ca         1 3TV       0.236500
      4 F17          1.5150    -2.6140    -0.3030 f          1 3TV      -0.121000
      5 C8          -1.2120    -0.2870    -0.5930 ca         1 3TV      -0.126000
      6 S11         -2.9190    -0.3260    -1.0080 ss         1 3TV      -0.153000
      7 C12         -3.6850     0.1600     0.5810 c3         1 3TV       0.058600
      8 C13         -5.1840    -0.0840     0.4880 c3         1 3TV      -0.068400
      9 C14         -5.8820     0.3390     1.7740 c3         1 3TV      -0.089100
     10 C9          -0.5460     0.9040    -0.3380 ca         1 3TV       0.148000
     11 F15         -1.2100     2.0520    -0.3730 f          1 3TV      -0.134000
     12 C10          0.8010     0.9210    -0.0480 ca         1 3TV       0.236500
     13 F16          1.3880     2.0850     0.1840 f          1 3TV      -0.121000
     14 C5           1.5430    -0.2560    -0.0300 ca         1 3TV      -0.304500
     15 S1           3.2820    -0.1660     0.3740 sy         1 3TV       1.159600
     16 O3           3.4260     0.6520     1.5620 o          1 3TV      -0.524000
     17 O4           3.8040    -1.5160     0.3870 o          1 3TV      -0.524000
     18 N2           3.8250     0.7180    -0.8940 n8         1 3TV      -1.021100
     19 H1          -3.2440    -0.4420     1.3760 h1         1 3TV       0.068700
     20 H2          -3.4780     1.2100     0.7820 h1         1 3TV       0.068700
     21 H3          -5.5980     0.4730    -0.3560 hc         1 3TV       0.054700
     22 H4          -5.3700    -1.1410     0.2920 hc         1 3TV       0.054700
     23 H5          -5.4910    -0.2080     2.6340 hc         1 3TV       0.037700
     24 H6          -5.7470     1.4040     1.9660 hc         1 3TV       0.037700
     25 H7          -6.9530     0.1450     1.7150 hc         1 3TV       0.037700
     26 H8           3.9930     0.1670    -1.7290 hn         1 3TV       0.486500
     27 H9           4.6360     1.2790    -0.6510 hn         1 3TV       0.486500
@<TRIPOS>BOND
     1     1     2 1   
     2     2     3 ar  
     3     2     5 ar  
     4     3     4 1   
     5     3    14 ar  
     6     5     6 1   
     7     5    10 ar  
     8     6     7 1   
     9     7     8 1   
    10     7    19 1   
    11     7    20 1   
    12     8     9 1   
    13     8    21 1   
    14     8    22 1   
    15     9    23 1   
    16     9    24 1   
    17     9    25 1   
    18    10    11 1   
    19    10    12 ar  
    20    12    13 1   
    21    12    14 ar  
    22    14    15 1   
    23    15    16 2   
    24    15    17 2   
    25    15    18 1   
    26    18    26 1   
    27    18    27 1   
@<TRIPOS>SUBSTRUCTURE
     1 3TV         1 TEMP              0 ****  ****    0 ROOT
