@<TRIPOS>MOLECULE
3TW
   45    48     1     0     0
SMALL
No Charge or Current Charge


@<TRIPOS>ATOM
      1 OAB         -8.7420    -2.2120     0.0890 oh         1 3TW      -0.526100
      2 CAT         -7.5730    -1.5110     0.1060 ca         1 3TW       0.153100
      3 CAC         -6.4530    -2.0480     0.7550 ca         1 3TW      -0.170500
      4 CAE         -5.2400    -1.3360     0.7800 ca         1 3TW      -0.054500
      5 CAD         -7.4870    -0.2580    -0.5210 ca         1 3TW      -0.170500
      6 CAF         -6.2770     0.4590    -0.4980 ca         1 3TW      -0.054500
      7 CAV         -5.1420    -0.0750     0.1520 ca         1 3TW      -0.048200
      8 NBA         -3.9370     0.6350     0.1730 na         1 3TW       0.222000
      9 CAL         -2.7000     0.0730     0.0350 cc         1 3TW      -0.152000
     10 NAP         -3.9120     1.9700     0.4240 nc         1 3TW      -0.193800
     11 NAO         -2.6440     2.2950     0.4230 nd         1 3TW      -0.350000
     12 CAX         -1.8760     1.1580     0.1900 cd         1 3TW       0.136000
     13 CAW         -0.3910     1.1560     0.1280 ca         1 3TW       0.343000
     14 NAQ          0.2200    -0.0370    -0.1060 nb         1 3TW      -0.671000
     15 CAH          0.3460     2.3440     0.3070 ca         1 3TW      -0.124000
     16 CAI          1.7470     2.3060     0.2420 ca         1 3TW      -0.077000
     17 CAY          2.3720     1.0710    -0.0010 ca         1 3TW      -0.042000
     18 CAK          3.7760     0.9910    -0.0730 ca         1 3TW      -0.144000
     19 CAZ          1.5720    -0.0870    -0.1710 ca         1 3TW       0.241000
     20 CAJ          2.2180    -1.3150    -0.4140 ca         1 3TW      -0.047000
     21 CAG          3.6210    -1.3990    -0.4870 ca         1 3TW      -0.178000
     22 CAU          4.4060    -0.2390    -0.3150 ca         1 3TW       0.148100
     23 OAS          5.7840    -0.2570    -0.3760 os         1 3TW      -0.336100
     24 CAN          6.5270    -1.4700    -0.6160 c3         1 3TW       0.165600
     25 CAM          8.0360    -1.1340    -0.6250 c3         1 3TW       0.156600
     26 OAR          8.4560    -0.8200     0.7190 os         1 3TW      -0.440000
     27 CAA          9.8470    -0.4820     0.8450 c3         1 3TW       0.144900
     28 H1          -9.4110    -1.6900    -0.4030 ho         1 3TW       0.471000
     29 H2          -6.5220    -3.0180     1.2420 ha         1 3TW       0.130000
     30 H3          -4.3820    -1.7630     1.2960 ha         1 3TW       0.135000
     31 H4          -8.3500     0.1660    -1.0280 ha         1 3TW       0.130000
     32 H5          -6.2210     1.4270    -0.9920 ha         1 3TW       0.135000
     33 H6          -2.5110    -0.9730    -0.1600 h4         1 3TW       0.183000
     34 H7          -0.1630     3.2860     0.4930 ha         1 3TW       0.144000
     35 H8           2.3310     3.2130     0.3770 ha         1 3TW       0.122000
     36 H9           4.3840     1.8820     0.0580 ha         1 3TW       0.132000
     37 H10          1.6200    -2.2130    -0.5470 ha         1 3TW       0.127000
     38 H11          4.0750    -2.3670    -0.6750 ha         1 3TW       0.117000
     39 H12          6.3240    -2.2190     0.1600 h1         1 3TW       0.043200
     40 H13          6.2550    -1.8960    -1.5900 h1         1 3TW       0.043200
     41 H14          8.5900    -2.0030    -1.0030 h1         1 3TW       0.033200
     42 H15          8.2200    -0.2910    -1.3030 h1         1 3TW       0.033200
     43 H16         10.4820    -1.3160     0.5180 h1         1 3TW       0.029700
     44 H17         10.0900     0.4000     0.2390 h1         1 3TW       0.029700
     45 H18         10.0910    -0.2570     1.8910 h1         1 3TW       0.029700
@<TRIPOS>BOND
     1     1     2 1   
     2     1    28 1   
     3     2     3 ar  
     4     2     5 ar  
     5     3     4 ar  
     6     3    29 1   
     7     4     7 ar  
     8     4    30 1   
     9     5     6 ar  
    10     5    31 1   
    11     6     7 ar  
    12     6    32 1   
    13     7     8 1   
    14     8     9 1   
    15     8    10 1   
    16     9    12 2   
    17     9    33 1   
    18    10    11 2   
    19    11    12 1   
    20    12    13 1   
    21    13    14 ar  
    22    13    15 ar  
    23    14    19 ar  
    24    15    16 ar  
    25    15    34 1   
    26    16    17 ar  
    27    16    35 1   
    28    17    18 ar  
    29    17    19 ar  
    30    18    22 ar  
    31    18    36 1   
    32    19    20 ar  
    33    20    21 ar  
    34    20    37 1   
    35    21    22 ar  
    36    21    38 1   
    37    22    23 1   
    38    23    24 1   
    39    24    25 1   
    40    24    39 1   
    41    24    40 1   
    42    25    26 1   
    43    25    41 1   
    44    25    42 1   
    45    26    27 1   
    46    27    43 1   
    47    27    44 1   
    48    27    45 1   
@<TRIPOS>SUBSTRUCTURE
     1 3TW         1 TEMP              0 ****  ****    0 ROOT
