@<TRIPOS>MOLECULE
3TW
   45    48     1     0     0
SMALL
abcg2


@<TRIPOS>ATOM
      1 OAB         -8.7160    -2.1170    -0.0640 oh         1 3TW      -0.526100
      2 CAT         -7.5580    -1.4400    -0.0080 ca         1 3TW       0.153100
      3 CAC         -6.5170    -1.9920     0.7370 ca         1 3TW      -0.170500
      4 CAE         -5.3040    -1.3340     0.8280 ca         1 3TW      -0.054500
      5 CAD         -7.3640    -0.2250    -0.6640 ca         1 3TW      -0.170500
      6 CAF         -6.1440     0.4240    -0.5860 ca         1 3TW      -0.054500
      7 CAV         -5.1150    -0.1320     0.1590 ca         1 3TW      -0.048200
      8 NBA         -3.8660     0.5270     0.2360 na         1 3TW       0.222000
      9 CAL         -2.6390    -0.0070     0.1290 cc         1 3TW      -0.152000
     10 NAP         -3.7980     1.8410     0.4250 nc         1 3TW      -0.193800
     11 NAO         -2.5580     2.1720     0.4380 nd         1 3TW      -0.350000
     12 CAX         -1.7960     1.0690     0.2610 cd         1 3TW       0.136000
     13 CAW         -0.3380     1.0950     0.2120 ca         1 3TW       0.343000
     14 NAQ          0.2630    -0.0470    -0.0050 nb         1 3TW      -0.671000
     15 CAH          0.3660     2.3140     0.3900 ca         1 3TW      -0.124000
     16 CAI          1.7270     2.3050     0.3290 ca         1 3TW      -0.077000
     17 CAY          2.4090     1.0870     0.0890 ca         1 3TW      -0.042000
     18 CAK          3.8080     0.9980     0.0060 ca         1 3TW      -0.144000
     19 CAZ          1.6120    -0.0740    -0.0680 ca         1 3TW       0.241000
     20 CAJ          2.2610    -1.3040    -0.3030 ca         1 3TW      -0.047000
     21 CAG          3.6260    -1.3780    -0.3820 ca         1 3TW      -0.178000
     22 CAU          4.4170    -0.2150    -0.2300 ca         1 3TW       0.148100
     23 OAS          5.7600    -0.2180    -0.3020 os         1 3TW      -0.336100
     24 CAN          6.4440    -1.4340    -0.5550 c3         1 3TW       0.165600
     25 CAM          7.9180    -1.1390    -0.6330 c3         1 3TW       0.156600
     26 OAR          8.3820    -0.7040     0.6170 os         1 3TW      -0.440000
     27 CAA          9.7570    -0.4190     0.6090 c3         1 3TW       0.144900
     28 H1          -9.3650    -1.6410    -0.5940 ho         1 3TW       0.471000
     29 H2          -6.6630    -2.9290     1.2570 ha         1 3TW       0.130000
     30 H3          -4.5100    -1.7600     1.4280 ha         1 3TW       0.135000
     31 H4          -8.1620     0.2130    -1.2510 ha         1 3TW       0.130000
     32 H5          -5.9980     1.3560    -1.1140 ha         1 3TW       0.135000
     33 H6          -2.4620    -1.0540    -0.0450 h4         1 3TW       0.183000
     34 H7          -0.1770     3.2310     0.5750 ha         1 3TW       0.144000
     35 H8           2.2920     3.2190     0.4610 ha         1 3TW       0.122000
     36 H9           4.4100     1.8910     0.1230 ha         1 3TW       0.132000
     37 H10          1.6590    -2.1950    -0.4240 ha         1 3TW       0.127000
     38 H11          4.0830    -2.3400    -0.5690 ha         1 3TW       0.117000
     39 H12          6.2450    -2.1660     0.2360 h1         1 3TW       0.043200
     40 H13          6.1270    -1.8730    -1.5060 h1         1 3TW       0.043200
     41 H14          8.4260    -2.0610    -0.9500 h1         1 3TW       0.033200
     42 H15          8.1090    -0.3880    -1.4130 h1         1 3TW       0.033200
     43 H16         10.3590    -1.2970     0.3440 h1         1 3TW       0.029700
     44 H17         10.0080     0.3830    -0.0960 h1         1 3TW       0.029700
     45 H18         10.0400    -0.0980     1.6110 h1         1 3TW       0.029700
@<TRIPOS>BOND
     1     1     2 1   
     2     1    28 1   
     3     2     3 ar  
     4     2     5 ar  
     5     3     4 ar  
     6     3    29 1   
     7     4     7 ar  
     8     4    30 1   
     9     5     6 ar  
    10     5    31 1   
    11     6     7 ar  
    12     6    32 1   
    13     7     8 1   
    14     8     9 1   
    15     8    10 1   
    16     9    12 2   
    17     9    33 1   
    18    10    11 2   
    19    11    12 1   
    20    12    13 1   
    21    13    14 ar  
    22    13    15 ar  
    23    14    19 ar  
    24    15    16 ar  
    25    15    34 1   
    26    16    17 ar  
    27    16    35 1   
    28    17    18 ar  
    29    17    19 ar  
    30    18    22 ar  
    31    18    36 1   
    32    19    20 ar  
    33    20    21 ar  
    34    20    37 1   
    35    21    22 ar  
    36    21    38 1   
    37    22    23 1   
    38    23    24 1   
    39    24    25 1   
    40    24    39 1   
    41    24    40 1   
    42    25    26 1   
    43    25    41 1   
    44    25    42 1   
    45    26    27 1   
    46    27    43 1   
    47    27    44 1   
    48    27    45 1   
@<TRIPOS>SUBSTRUCTURE
     1 3TW         1 TEMP              0 ****  ****    0 ROOT
