@<TRIPOS>MOLECULE
3TX
   34    37     1     0     0
SMALL
abcg2


@<TRIPOS>ATOM
      1 OAA          7.0130     1.2320    -0.1110 oh         1 3TX      -0.525100
      2 CAP          5.7410     0.8120    -0.0160 ca         1 3TX       0.152100
      3 CAD          5.4070    -0.3960    -0.6270 ca         1 3TX      -0.169500
      4 CAF          4.1100    -0.8710    -0.5690 ca         1 3TX      -0.055500
      5 CAE          4.7590     1.5330     0.6620 ca         1 3TX      -0.169500
      6 CAG          3.4640     1.0490     0.7310 ca         1 3TX      -0.055500
      7 CAS          3.1390    -0.1470     0.1110 ca         1 3TX      -0.047200
      8 NAV          1.8110    -0.6320     0.1660 na         1 3TX       0.223000
      9 CAL          0.6670     0.0630     0.0580 cc         1 3TX      -0.149000
     10 NAN          1.5660    -1.9260     0.3460 nc         1 3TX      -0.192800
     11 NAM          0.2940    -2.0880     0.3540 nd         1 3TX      -0.348000
     12 CAR         -0.3130    -0.8920     0.1830 cd         1 3TX       0.131000
     13 CAQ         -1.7610    -0.7210     0.1370 ca         1 3TX       0.357000
     14 CAH         -2.6200    -1.8350     0.3040 ca         1 3TX      -0.134000
     15 NAO         -2.1990     0.4970    -0.0660 nb         1 3TX      -0.681000
     16 CAU         -3.5320     0.7130    -0.1210 ca         1 3TX       0.276000
     17 CAT         -4.4740    -0.3350     0.0340 ca         1 3TX      -0.083000
     18 CAK         -3.9670    -1.6350     0.2520 ca         1 3TX      -0.067000
     19 CAJ         -3.9990     2.0280    -0.3410 ca         1 3TX      -0.085000
     20 CAC         -5.3430     2.2810    -0.4030 ca         1 3TX      -0.103000
     21 CAB         -6.2800     1.2380    -0.2480 ca         1 3TX      -0.108000
     22 CAI         -5.8540    -0.0450    -0.0340 ca         1 3TX      -0.090000
     23 H1           7.1280     2.0740     0.3450 ho         1 3TX       0.470000
     24 H2           6.1640    -0.9570    -1.1590 ha         1 3TX       0.130500
     25 H3           3.8570    -1.8000    -1.0610 ha         1 3TX       0.135500
     26 H4           5.0030     2.4700     1.1480 ha         1 3TX       0.130500
     27 H5           2.7180     1.6060     1.2840 ha         1 3TX       0.135500
     28 H6           0.6310     1.1250    -0.1140 h4         1 3TX       0.183000
     29 H7          -2.2060    -2.8200     0.4710 ha         1 3TX       0.145000
     30 H8          -4.6540    -2.4640     0.3770 ha         1 3TX       0.121000
     31 H9          -3.2730     2.8220    -0.4590 ha         1 3TX       0.127000
     32 H10         -5.6940     3.2910    -0.5730 ha         1 3TX       0.115000
     33 H11         -7.3380     1.4570    -0.3000 ha         1 3TX       0.115000
     34 H12         -6.5680    -0.8510     0.0830 ha         1 3TX       0.115000
@<TRIPOS>BOND
     1     1     2 1   
     2     1    23 1   
     3     2     3 ar  
     4     2     5 ar  
     5     3     4 ar  
     6     3    24 1   
     7     4     7 ar  
     8     4    25 1   
     9     5     6 ar  
    10     5    26 1   
    11     6     7 ar  
    12     6    27 1   
    13     7     8 1   
    14     8     9 1   
    15     8    10 1   
    16     9    12 2   
    17     9    28 1   
    18    10    11 2   
    19    11    12 1   
    20    12    13 1   
    21    13    14 ar  
    22    13    15 ar  
    23    14    18 ar  
    24    14    29 1   
    25    15    16 ar  
    26    16    17 ar  
    27    16    19 ar  
    28    17    18 ar  
    29    17    22 ar  
    30    18    30 1   
    31    19    20 ar  
    32    19    31 1   
    33    20    21 ar  
    34    20    32 1   
    35    21    22 ar  
    36    21    33 1   
    37    22    34 1   
@<TRIPOS>SUBSTRUCTURE
     1 3TX         1 TEMP              0 ****  ****    0 ROOT
