@<TRIPOS>MOLECULE
3TX
   34    37     1     0     0
SMALL
No Charge or Current Charge


@<TRIPOS>ATOM
      1 OAA          7.0040     1.3710    -0.0550 oh         1 3TX      -0.525100
      2 CAP          5.7420     0.8590    -0.0080 ca         1 3TX       0.152100
      3 CAD          5.4670    -0.3630    -0.6360 ca         1 3TX      -0.169500
      4 CAF          4.1690    -0.9040    -0.5950 ca         1 3TX      -0.055500
      5 CAE          4.7200     1.5470     0.6640 ca         1 3TX      -0.169500
      6 CAG          3.4190     1.0110     0.7070 ca         1 3TX      -0.055500
      7 CAS          3.1330    -0.2190     0.0770 ca         1 3TX      -0.047200
      8 NAV          1.8410    -0.7530     0.1160 na         1 3TX       0.223000
      9 CAL          0.6930    -0.0210     0.0010 cc         1 3TX      -0.149000
     10 NAN          1.6310    -2.0720     0.3650 nc         1 3TX      -0.192800
     11 NAM          0.3300    -2.2150     0.3850 nd         1 3TX      -0.348000
     12 CAR         -0.2740    -0.9790     0.1680 cd         1 3TX       0.131000
     13 CAQ         -1.7440    -0.7670     0.1310 ca         1 3TX       0.357000
     14 CAH         -2.6380    -1.8400     0.3190 ca         1 3TX      -0.134000
     15 NAO         -2.1830     0.5010    -0.0900 nb         1 3TX      -0.681000
     16 CAU         -3.5150     0.7420    -0.1320 ca         1 3TX       0.276000
     17 CAT         -4.4680    -0.2930     0.0490 ca         1 3TX      -0.083000
     18 CAK         -4.0210    -1.6040     0.2780 ca         1 3TX      -0.067000
     19 CAJ         -3.9810     2.0510    -0.3600 ca         1 3TX      -0.085000
     20 CAC         -5.3580     2.3310    -0.4090 ca         1 3TX      -0.103000
     21 CAB         -6.2920     1.2980    -0.2280 ca         1 3TX      -0.108000
     22 CAI         -5.8480    -0.0140     0.0010 ca         1 3TX      -0.090000
     23 H1           7.0130     2.2230     0.4320 ho         1 3TX       0.470000
     24 H2           6.2600    -0.8950    -1.1570 ha         1 3TX       0.130500
     25 H3           3.9700    -1.8520    -1.0920 ha         1 3TX       0.135500
     26 H4           4.9240     2.4960     1.1560 ha         1 3TX       0.130500
     27 H5           2.6390     1.5520     1.2390 ha         1 3TX       0.135500
     28 H6           0.6500     1.0430    -0.1880 h4         1 3TX       0.183000
     29 H7          -2.2650    -2.8450     0.4940 ha         1 3TX       0.145000
     30 H8          -4.7250    -2.4220     0.4210 ha         1 3TX       0.121000
     31 H9          -3.2640     2.8560    -0.5010 ha         1 3TX       0.127000
     32 H10         -5.7000     3.3490    -0.5860 ha         1 3TX       0.115000
     33 H11         -7.3570     1.5140    -0.2650 ha         1 3TX       0.115000
     34 H12         -6.5750    -0.8110     0.1410 ha         1 3TX       0.115000
@<TRIPOS>BOND
     1     1     2 1   
     2     1    23 1   
     3     2     3 ar  
     4     2     5 ar  
     5     3     4 ar  
     6     3    24 1   
     7     4     7 ar  
     8     4    25 1   
     9     5     6 ar  
    10     5    26 1   
    11     6     7 ar  
    12     6    27 1   
    13     7     8 1   
    14     8     9 1   
    15     8    10 1   
    16     9    12 2   
    17     9    28 1   
    18    10    11 2   
    19    11    12 1   
    20    12    13 1   
    21    13    14 ar  
    22    13    15 ar  
    23    14    18 ar  
    24    14    29 1   
    25    15    16 ar  
    26    16    17 ar  
    27    16    19 ar  
    28    17    18 ar  
    29    17    22 ar  
    30    18    30 1   
    31    19    20 ar  
    32    19    31 1   
    33    20    21 ar  
    34    20    32 1   
    35    21    22 ar  
    36    21    33 1   
    37    22    34 1   
@<TRIPOS>SUBSTRUCTURE
     1 3TX         1 TEMP              0 ****  ****    0 ROOT
