@<TRIPOS>MOLECULE
3TZ
   54    57     1     0     0
SMALL
bcc


@<TRIPOS>ATOM
      1 C           -7.1310    -1.8060    -0.3310 c          1 3TZ       0.928600
      2 N           -4.9020    -0.7900     0.1470 ns         1 3TZ      -0.490900
      3 OXT         -8.3450    -1.8190    -0.0410 o          1 3TZ      -0.848800
      4 N1           4.1760     3.1770     0.0100 ns         1 3TZ      -0.511400
      5 C2           5.4350     3.5270     0.3670 cc         1 3TZ       0.740800
      6 N3           6.3970     2.6380     0.4600 nd         1 3TZ      -0.712300
      7 C4           6.0250     1.3760     0.2430 cd         1 3TZ       0.280200
      8 C5           4.7530     0.8830    -0.0240 cc         1 3TZ      -0.256400
      9 C6           3.7460     1.8800    -0.2780 c          1 3TZ       0.748700
     10 O6           2.6220     1.7320    -0.7280 o          1 3TZ      -0.592500
     11 CA          -6.3320    -0.6150     0.2550 c3         1 3TZ      -0.048300
     12 CB          -6.7450     0.6970    -0.4150 c3         1 3TZ      -0.055400
     13 CG          -6.0970     1.9220     0.2100 c3         1 3TZ      -0.200400
     14 NAA          5.6830     4.8090     0.6230 nv         1 3TZ      -0.946800
     15 CAH          5.3130    -3.2890    -0.5390 ca         1 3TZ      -0.130000
     16 CAI          4.0000    -2.8250    -0.5280 ca         1 3TZ      -0.120000
     17 CAJ         -0.7170    -3.0120     0.9940 ca         1 3TZ      -0.214000
     18 CAK         -0.6430    -0.8870    -0.1260 ca         1 3TZ      -0.214000
     19 CAL         -2.0760    -2.8760     1.1620 ca         1 3TZ      -0.060500
     20 CAM         -2.0140    -0.7730     0.0360 ca         1 3TZ      -0.060500
     21 CAN          6.3550    -2.4170    -0.3000 ca         1 3TZ      -0.110000
     22 CAQ          2.2350    -1.0790    -0.1740 c3         1 3TZ       0.247100
     23 SAV          7.2390     0.1420     0.2290 ss         1 3TZ      -0.058500
     24 CAY         -4.2230    -1.6420     0.9310 c          1 3TZ       0.666700
     25 CBA          0.0370    -2.0170     0.3460 ca         1 3TZ       0.142600
     26 CBB         -2.7610    -1.7580     0.6770 ca         1 3TZ      -0.144600
     27 CBD          3.6800    -1.4900    -0.3140 ca         1 3TZ      -0.042300
     28 CBE          6.0470    -1.0770    -0.1230 ca         1 3TZ      -0.054100
     29 CBG          4.7350    -0.5620    -0.1820 ca         1 3TZ       0.010200
     30 OE1         -6.0320     4.2880     0.1820 o          1 3TZ      -0.867300
     31 OE2         -7.4120     3.2870    -1.2500 o          1 3TZ      -0.867300
     32 O           -6.5220    -2.6190    -1.0460 o          1 3TZ      -0.848800
     33 HN          -4.4720    -0.4960    -0.7150 hn         1 3TZ       0.297500
     34 HN1          3.4830     3.9020    -0.1260 hn         1 3TZ       0.330500
     35 HA          -6.5780    -0.5360     1.3180 h1         1 3TZ       0.055700
     36 HB          -6.5170     0.6500    -1.4860 hc         1 3TZ       0.049700
     37 HBA         -7.8300     0.7750    -0.3420 hc         1 3TZ       0.049700
     38 HG          -6.2720     1.9110     1.2930 hc         1 3TZ       0.009200
     39 HGA         -5.0080     1.8730     0.1050 hc         1 3TZ       0.009200
     40 HNAA         5.0010     5.5310     0.4650 hn         1 3TZ       0.452300
     41 HNAB         6.6280     5.0930     0.8170 hn         1 3TZ       0.452300
     42 HAH          5.5100    -4.3400    -0.7030 ha         1 3TZ       0.128000
     43 HAI          3.2040    -3.5420    -0.6750 ha         1 3TZ       0.153000
     44 HAJ         -0.2150    -3.8940     1.3740 ha         1 3TZ       0.118000
     45 HAK         -0.1110    -0.0750    -0.6020 ha         1 3TZ       0.118000
     46 HAL         -2.6220    -3.6540     1.6800 ha         1 3TZ       0.147500
     47 HAM         -2.4860     0.1340    -0.3220 ha         1 3TZ       0.147500
     48 HAN          7.3790    -2.7630    -0.2540 ha         1 3TZ       0.129000
     49 HAQ          1.8840    -0.6640    -1.1200 h1         1 3TZ       0.065200
     50 HAQA         2.1590    -0.2750     0.5630 h1         1 3TZ       0.065200
     51 HNAT         1.7950    -2.8260     0.8630 hn         1 3TZ       0.392800
     52 NAT          1.3880    -2.1920     0.1910 nu         1 3TZ      -0.760600
     53 CD          -6.5600     3.2830    -0.3390 c          1 3TZ       0.923600
     54 OAD         -4.7560    -2.2680     1.8430 o          1 3TZ      -0.643100
@<TRIPOS>BOND
     1     1     3 1   
     2     1    11 1   
     3     1    32 1   
     4     2    11 1   
     5     2    24 1   
     6     2    33 1   
     7     4     5 1   
     8     4     9 1   
     9     4    34 1   
    10     5     6 2   
    11     5    14 1   
    12     6     7 1   
    13     7     8 2   
    14     7    23 1   
    15     8     9 1   
    16     8    29 1   
    17     9    10 2   
    18    11    12 1   
    19    11    35 1   
    20    12    13 1   
    21    12    36 1   
    22    12    37 1   
    23    13    38 1   
    24    13    39 1   
    25    13    53 1   
    26    14    40 1   
    27    14    41 1   
    28    15    16 ar  
    29    15    21 ar  
    30    15    42 1   
    31    16    27 ar  
    32    16    43 1   
    33    17    19 ar  
    34    17    25 ar  
    35    17    44 1   
    36    18    20 ar  
    37    18    25 ar  
    38    18    45 1   
    39    19    26 ar  
    40    19    46 1   
    41    20    26 ar  
    42    20    47 1   
    43    21    28 ar  
    44    21    48 1   
    45    22    27 1   
    46    22    49 1   
    47    22    50 1   
    48    22    52 1   
    49    23    28 1   
    50    24    26 1   
    51    24    54 2   
    52    25    52 1   
    53    27    29 ar  
    54    28    29 ar  
    55    30    53 1   
    56    31    53 1   
    57    51    52 1   
@<TRIPOS>SUBSTRUCTURE
     1 3TZ         1 TEMP              0 ****  ****    0 ROOT
