@<TRIPOS>MOLECULE
3TZ
   54    57     1     0     0
SMALL
No Charge or Current Charge


@<TRIPOS>ATOM
      1 C           -6.8450    -0.5120    -2.0490 c          1 3TZ       0.718000
      2 N           -4.9450    -0.7080    -0.4450 ns         1 3TZ      -0.423900
      3 OXT         -7.7750    -1.2530    -2.3340 o          1 3TZ      -0.743500
      4 N1           4.3380     2.9480    -1.1180 ns         1 3TZ      -0.444400
      5 C2           5.4590     3.4290    -0.5730 cc         1 3TZ       0.740800
      6 N3           6.4030     2.7540     0.0170 nd         1 3TZ      -0.712300
      7 C4           6.1210     1.3940     0.1500 cd         1 3TZ       0.280200
      8 C5           4.9260     0.8330    -0.2880 cc         1 3TZ      -0.256400
      9 C6           3.9840     1.6510    -1.0750 c          1 3TZ       0.606200
     10 O6           3.0000     1.2650    -1.6780 o          1 3TZ      -0.517000
     11 CA          -6.3980    -0.4290    -0.5570 c3         1 3TZ      -0.048300
     12 CB          -6.7830     0.9400     0.0670 c3         1 3TZ      -0.055400
     13 CG          -6.5120     1.0590     1.5900 c3         1 3TZ      -0.200400
     14 NAA          5.6730     4.7220    -0.7190 nv         1 3TZ      -1.057200
     15 CAH          5.3900    -3.3380     0.5850 ca         1 3TZ      -0.112000
     16 CAI          4.1060    -2.9170     0.1990 ca         1 3TZ      -0.102000
     17 CAJ         -0.7570    -2.5110     1.3920 ca         1 3TZ      -0.196000
     18 CAK         -0.6640    -1.0590    -0.5430 ca         1 3TZ      -0.196000
     19 CAL         -2.1570    -2.3880     1.4210 ca         1 3TZ      -0.042500
     20 CAM         -2.0640    -0.9300    -0.5210 ca         1 3TZ      -0.042500
     21 CAN          6.4060    -2.3940     0.7660 ca         1 3TZ      -0.092000
     22 CAQ          2.3610    -1.1340    -0.2840 c3         1 3TZ       0.247100
     23 SAV          7.3190     0.2410     0.7740 ss         1 3TZ       0.068400
     24 CAY         -4.3440    -1.4850     0.5270 c          1 3TZ       0.599700
     25 CBA         -0.0050    -1.8490     0.4130 ca         1 3TZ       0.281000
     26 CBB         -2.8320    -1.5960     0.4650 ca         1 3TZ      -0.144600
     27 CBD          3.8180    -1.5480    -0.0410 ca         1 3TZ      -0.042300
     28 CBE          6.1370    -1.0490     0.4850 ca         1 3TZ      -0.181000
     29 CBG          4.8970    -0.6130     0.0160 ca         1 3TZ       0.010200
     30 OE1         -8.1970     2.4700     2.4950 o          1 3TZ      -0.762000
     31 OE2         -6.2870     3.3720     2.0890 o          1 3TZ      -0.762000
     32 O           -6.1910     0.0920    -2.8900 o          1 3TZ      -0.743500
     33 HN          -4.3380    -0.2940    -1.1390 hn         1 3TZ       0.297500
     34 HN1          3.7110     3.5720    -1.5960 hn         1 3TZ       0.330500
     35 HA          -6.9460    -1.2150    -0.0210 h1         1 3TZ       0.055700
     36 HB          -6.2480     1.7410    -0.4590 hc         1 3TZ       0.049700
     37 HBA         -7.8520     1.1110    -0.1120 hc         1 3TZ       0.049700
     38 HG          -7.0550     0.2280     2.0570 hc         1 3TZ       0.009200
     39 HGA         -5.4240     1.0000     1.7130 hc         1 3TZ       0.009200
     40 HNAA         5.3080     5.1480    -1.5620 hn         1 3TZ       0.507500
     41 HNAB         6.6170     4.9980    -0.4790 hn         1 3TZ       0.507500
     42 HAH          5.5830    -4.3900     0.7820 ha         1 3TZ       0.110000
     43 HAI          3.3250    -3.6680     0.1080 ha         1 3TZ       0.135000
     44 HAJ         -0.2590    -3.1260     2.1360 ha         1 3TZ       0.100000
     45 HAK         -0.0990    -0.5400    -1.3110 ha         1 3TZ       0.100000
     46 HAL         -2.7160    -2.9130     2.1930 ha         1 3TZ       0.129500
     47 HAM         -2.5320    -0.3070    -1.2790 ha         1 3TZ       0.129500
     48 HAN          7.3880    -2.7020     1.1200 ha         1 3TZ       0.111000
     49 HAQ          2.1680    -1.1390    -1.3660 h1         1 3TZ       0.065200
     50 HAQA         2.2200    -0.1140     0.0940 h1         1 3TZ       0.065200
     51 HNAT         1.7520    -2.5690     1.1690 hn         1 3TZ       0.448000
     52 NAT          1.3800    -1.9950     0.4140 nu         1 3TZ      -0.954200
     53 CD          -7.0370     2.4090     2.1180 c          1 3TZ       0.713000
     54 OAD         -5.0000    -2.0600     1.3870 o          1 3TZ      -0.643100
@<TRIPOS>BOND
     1     1     3 1   
     2     1    11 1   
     3     1    32 1   
     4     2    11 1   
     5     2    24 1   
     6     2    33 1   
     7     4     5 1   
     8     4     9 1   
     9     4    34 1   
    10     5     6 2   
    11     5    14 1   
    12     6     7 1   
    13     7     8 2   
    14     7    23 1   
    15     8     9 1   
    16     8    29 1   
    17     9    10 2   
    18    11    12 1   
    19    11    35 1   
    20    12    13 1   
    21    12    36 1   
    22    12    37 1   
    23    13    38 1   
    24    13    39 1   
    25    13    53 1   
    26    14    40 1   
    27    14    41 1   
    28    15    16 ar  
    29    15    21 ar  
    30    15    42 1   
    31    16    27 ar  
    32    16    43 1   
    33    17    19 ar  
    34    17    25 ar  
    35    17    44 1   
    36    18    20 ar  
    37    18    25 ar  
    38    18    45 1   
    39    19    26 ar  
    40    19    46 1   
    41    20    26 ar  
    42    20    47 1   
    43    21    28 ar  
    44    21    48 1   
    45    22    27 1   
    46    22    49 1   
    47    22    50 1   
    48    22    52 1   
    49    23    28 1   
    50    24    26 1   
    51    24    54 2   
    52    25    52 1   
    53    27    29 ar  
    54    28    29 ar  
    55    30    53 1   
    56    31    53 1   
    57    51    52 1   
@<TRIPOS>SUBSTRUCTURE
     1 3TZ         1 TEMP              0 ****  ****    0 ROOT
