@<TRIPOS>MOLECULE
3U1
   53    58     1     0     0
SMALL
No Charge or Current Charge


@<TRIPOS>ATOM
      1 F01         -1.0510     1.2610    -1.9150 f          1 3U1      -0.167000
      2 C02         -2.0190     1.7440    -1.1040 ca         1 3U1       0.203000
      3 C03         -2.2370     3.1300    -1.0880 ca         1 3U1      -0.172000
      4 C04         -3.2390     3.6790    -0.2730 ca         1 3U1      -0.056000
      5 C05         -4.0210     2.8320     0.5270 ca         1 3U1      -0.172000
      6 C06         -3.8030     1.4440     0.5130 ca         1 3U1       0.203000
      7 F07         -4.5600     0.6710     1.3230 f          1 3U1      -0.167000
      8 C08         -2.7960     0.8630    -0.3030 cp         1 3U1      -0.116000
      9 C09         -2.5460    -0.6160    -0.3010 cp         1 3U1      -0.077000
     10 C10         -3.6140    -1.5520    -0.4370 ca         1 3U1      -0.044000
     11 C11         -3.3740    -2.9440    -0.4190 ca         1 3U1      -0.133000
     12 C12         -2.0510    -3.3790    -0.2690 ca         1 3U1      -0.041200
     13 N13         -1.5540    -4.6660    -0.2080 na         1 3U1      -0.046400
     14 N14         -0.1570    -4.6450    -0.0450 nc         1 3U1      -0.503100
     15 C15          0.1750    -3.3380    -0.0150 cd         1 3U1       0.287900
     16 C16          1.5840    -2.8580     0.1130 ca         1 3U1       0.353700
     17 C17          2.6490    -3.7940     0.2750 ca         1 3U1       0.269900
     18 N18          3.9560    -3.4180     0.3870 nb         1 3U1      -0.611000
     19 C19          4.1780    -2.0720     0.3290 ca         1 3U1       0.273900
     20 C20          3.1280    -1.1190     0.1670 ca         1 3U1       0.550300
     21 O21          3.4400     0.2260     0.0940 os         1 3U1      -0.455300
     22 C22          2.3930     1.2310     0.0220 c6         1 3U1       0.173300
     23 C23          1.6850     1.4240     1.4040 c6         1 3U1       0.135800
     24 N24          0.6390     2.4900     1.3730 n7         1 3U1      -0.849400
     25 C25          1.1710     3.7920     0.9040 c6         1 3U1       0.153800
     26 C26          1.8430     3.6570    -0.4860 c6         1 3U1      -0.082400
     27 C27          2.9570     2.5870    -0.4780 cx         1 3U1      -0.121000
     28 C28          4.0180     2.6260    -1.5560 cx         1 3U1      -0.114900
     29 C29          4.3690     3.0100    -0.1320 cx         1 3U1      -0.114900
     30 N30          1.8330    -1.5130     0.0560 nb         1 3U1      -0.741000
     31 C31         -1.0170    -2.5070    -0.1490 ca         1 3U1      -0.197900
     32 C32         -1.2250    -1.1170    -0.1510 ca         1 3U1       0.005000
     33 H1          -1.6280     3.7790    -1.7130 ha         1 3U1       0.138500
     34 H2          -3.4070     4.7550    -0.2600 ha         1 3U1       0.124000
     35 H3          -4.7950     3.2490     1.1660 ha         1 3U1       0.138500
     36 H4          -4.6330    -1.1940    -0.5610 ha         1 3U1       0.120000
     37 H5          -4.1930    -3.6520    -0.5180 ha         1 3U1       0.123000
     38 H6          -2.0880    -5.5320    -0.2650 hn         1 3U1       0.381000
     39 H7           2.4550    -4.8650     0.3180 h4         1 3U1       0.048100
     40 H8           5.2130    -1.7430     0.4100 h4         1 3U1       0.043100
     41 H9           1.6480     0.9130    -0.7230 h1         1 3U1       0.070700
     42 H10          1.2280     0.4770     1.7250 h1         1 3U1       0.067200
     43 H11          2.4470     1.6850     2.1540 h1         1 3U1       0.067200
     44 H12         -0.1040     2.1990     0.7270 hn         1 3U1       0.408000
     45 H14          0.3550     4.5280     0.8500 h1         1 3U1       0.054200
     46 H15          1.9100     4.1690     1.6280 h1         1 3U1       0.054200
     47 H16          1.0890     3.3890    -1.2390 hc         1 3U1       0.049200
     48 H17          2.2520     4.6300    -0.7910 hc         1 3U1       0.049200
     49 H18          4.4030     1.6830    -1.9350 hc         1 3U1       0.075450
     50 H19          3.9670     3.4220    -2.2950 hc         1 3U1       0.075450
     51 H20          4.5530     4.0610     0.0770 hc         1 3U1       0.075450
     52 H21          4.9910     2.3230     0.4380 hc         1 3U1       0.075450
     53 H22         -0.4030    -0.4220    -0.0300 ha         1 3U1       0.137000
@<TRIPOS>BOND
     1     1     2 1   
     2     2     3 ar  
     3     2     8 ar  
     4     3     4 ar  
     5     3    33 1   
     6     4     5 ar  
     7     4    34 1   
     8     5     6 ar  
     9     5    35 1   
    10     6     7 1   
    11     6     8 ar  
    12     8     9 1   
    13     9    10 ar  
    14     9    32 ar  
    15    10    11 ar  
    16    10    36 1   
    17    11    12 ar  
    18    11    37 1   
    19    12    13 1   
    20    12    31 ar  
    21    13    14 1   
    22    13    38 1   
    23    14    15 2   
    24    15    16 1   
    25    15    31 1   
    26    16    17 ar  
    27    16    30 ar  
    28    17    18 ar  
    29    17    39 1   
    30    18    19 ar  
    31    19    20 ar  
    32    19    40 1   
    33    20    21 1   
    34    20    30 ar  
    35    21    22 1   
    36    22    23 1   
    37    22    27 1   
    38    22    41 1   
    39    23    24 1   
    40    23    42 1   
    41    23    43 1   
    42    24    25 1   
    43    24    44 1   
    44    25    26 1   
    45    25    45 1   
    46    25    46 1   
    47    26    27 1   
    48    26    47 1   
    49    26    48 1   
    50    27    28 1   
    51    27    29 1   
    52    28    29 1   
    53    28    49 1   
    54    28    50 1   
    55    29    51 1   
    56    29    52 1   
    57    31    32 ar  
    58    32    53 1   
@<TRIPOS>SUBSTRUCTURE
     1 3U1         1 TEMP              0 ****  ****    0 ROOT
