@<TRIPOS>MOLECULE
3U1
   53    58     1     0     0
SMALL
bcc


@<TRIPOS>ATOM
      1 F01         -1.3810     1.2360    -2.1870 f          1 3U1      -0.131900
      2 C02         -2.1640     1.7550    -1.2310 ca         1 3U1       0.167900
      3 C03         -2.3530     3.1230    -1.2050 ca         1 3U1      -0.190000
      4 C04         -3.1630     3.6590    -0.2140 ca         1 3U1      -0.074000
      5 C05         -3.7670     2.8390     0.7280 ca         1 3U1      -0.190000
      6 C06         -3.5410     1.4790     0.6570 ca         1 3U1       0.167900
      7 F07         -4.1030     0.6830     1.5750 f          1 3U1      -0.131900
      8 C08         -2.7390     0.8850    -0.3100 cp         1 3U1      -0.116000
      9 C09         -2.4760    -0.5700    -0.3290 cp         1 3U1      -0.077000
     10 C10         -3.5330    -1.4960    -0.4900 ca         1 3U1      -0.062000
     11 C11         -3.3150    -2.8540    -0.5000 ca         1 3U1      -0.151000
     12 C12         -1.9940    -3.2860    -0.3400 ca         1 3U1      -0.041200
     13 N13         -1.4430    -4.5230    -0.2990 na         1 3U1       0.003900
     14 N14         -0.1290    -4.4890    -0.1340 nc         1 3U1      -0.503100
     15 C15          0.2200    -3.2240    -0.0600 cd         1 3U1       0.287900
     16 C16          1.6070    -2.8120     0.1110 ca         1 3U1       0.353700
     17 C17          2.6540    -3.7110     0.2650 ca         1 3U1       0.269900
     18 N18          3.9050    -3.2830     0.4090 nb         1 3U1      -0.611000
     19 C19          4.1320    -1.9870     0.4020 ca         1 3U1       0.273900
     20 C20          3.0700    -1.0810     0.2510 ca         1 3U1       0.550300
     21 O21          3.3560     0.2170     0.2410 os         1 3U1      -0.432100
     22 C22          2.3030     1.1690     0.0810 c6         1 3U1       0.150100
     23 C23          1.6170     1.4390     1.4260 c6         1 3U1       0.135800
     24 N24          0.6030     2.4730     1.3550 n7         1 3U1      -0.794200
     25 C25          1.1000     3.7070     0.7660 c6         1 3U1       0.153800
     26 C26          1.7860     3.5030    -0.5820 c6         1 3U1      -0.082400
     27 C27          2.8750     2.4570    -0.4670 cx         1 3U1      -0.121000
     28 C28          3.9840     2.4470    -1.4660 cx         1 3U1      -0.114900
     29 C29          4.2430     2.9060    -0.0570 cx         1 3U1      -0.114900
     30 N30          1.8350    -1.4970     0.1120 nb         1 3U1      -0.741000
     31 C31         -0.9290    -2.3870    -0.1830 ca         1 3U1      -0.197900
     32 C32         -1.1800    -1.0130    -0.1770 ca         1 3U1      -0.013000
     33 H1          -1.8810     3.7530    -1.9470 ha         1 3U1       0.156500
     34 H2          -3.3240     4.7270    -0.1750 ha         1 3U1       0.142000
     35 H3          -4.3930     3.2490     1.5100 ha         1 3U1       0.156500
     36 H4          -4.5410    -1.1270    -0.6280 ha         1 3U1       0.138000
     37 H5          -4.1310    -3.5520    -0.6280 ha         1 3U1       0.141000
     38 H6          -1.9100    -5.4120    -0.3870 hn         1 3U1       0.330700
     39 H7           2.4850    -4.7800     0.2720 h4         1 3U1       0.048100
     40 H8           5.1520    -1.6390     0.5160 h4         1 3U1       0.043100
     41 H9           1.5720     0.7810    -0.6380 h1         1 3U1       0.070700
     42 H10          1.1630     0.5250     1.8150 h1         1 3U1       0.067200
     43 H11          2.3840     1.7470     2.1450 h1         1 3U1       0.067200
     44 H12         -0.1950     2.1430     0.8230 hn         1 3U1       0.352800
     45 H14          0.2670     4.4050     0.6700 h1         1 3U1       0.054200
     46 H15          1.8090     4.1590     1.4670 h1         1 3U1       0.054200
     47 H16          1.0460     3.1900    -1.3270 hc         1 3U1       0.049200
     48 H17          2.2060     4.4470    -0.9390 hc         1 3U1       0.049200
     49 H18          4.4040     1.4970    -1.7750 hc         1 3U1       0.075450
     50 H19          3.9590     3.1920    -2.2530 hc         1 3U1       0.075450
     51 H20          4.3930     3.9650     0.1180 hc         1 3U1       0.075450
     52 H21          4.8390     2.2660     0.5820 hc         1 3U1       0.075450
     53 H22         -0.3660    -0.3180    -0.0450 ha         1 3U1       0.155000
@<TRIPOS>BOND
     1     1     2 1   
     2     2     3 ar  
     3     2     8 ar  
     4     3     4 ar  
     5     3    33 1   
     6     4     5 ar  
     7     4    34 1   
     8     5     6 ar  
     9     5    35 1   
    10     6     7 1   
    11     6     8 ar  
    12     8     9 1   
    13     9    10 ar  
    14     9    32 ar  
    15    10    11 ar  
    16    10    36 1   
    17    11    12 ar  
    18    11    37 1   
    19    12    13 1   
    20    12    31 ar  
    21    13    14 1   
    22    13    38 1   
    23    14    15 2   
    24    15    16 1   
    25    15    31 1   
    26    16    17 ar  
    27    16    30 ar  
    28    17    18 ar  
    29    17    39 1   
    30    18    19 ar  
    31    19    20 ar  
    32    19    40 1   
    33    20    21 1   
    34    20    30 ar  
    35    21    22 1   
    36    22    23 1   
    37    22    27 1   
    38    22    41 1   
    39    23    24 1   
    40    23    42 1   
    41    23    43 1   
    42    24    25 1   
    43    24    44 1   
    44    25    26 1   
    45    25    45 1   
    46    25    46 1   
    47    26    27 1   
    48    26    47 1   
    49    26    48 1   
    50    27    28 1   
    51    27    29 1   
    52    28    29 1   
    53    28    49 1   
    54    28    50 1   
    55    29    51 1   
    56    29    52 1   
    57    31    32 ar  
    58    32    53 1   
@<TRIPOS>SUBSTRUCTURE
     1 3U1         1 TEMP              0 ****  ****    0 ROOT
