@<TRIPOS>MOLECULE
3U2
   38    39     1     0     0
SMALL
No Charge or Current Charge


@<TRIPOS>ATOM
      1 CAK         -5.0990   -41.1170     4.0700 c3         1 3U2      -0.091100
      2 CAB         -6.3070   -40.6350     4.9300 c6         1 3U2      -0.102700
      3 CAC         -7.0000   -39.3420     4.3600 c6         1 3U2       0.150300
      4 OAJ         -6.9620   -39.2840     2.9220 oh         1 3U2      -0.708000
      5 CAD         -8.4740   -39.2380     4.8500 c6         1 3U2       0.139300
      6 OAI         -9.0640   -37.9940     4.4330 oh         1 3U2      -0.655000
      7 CAE         -9.3180   -40.4480     4.3160 c6         1 3U2       0.181300
      8 OAH        -10.5370   -40.5770     5.0680 oh         1 3U2      -0.729000
      9 CAF         -8.5200   -41.7880     4.2890 c6         1 3U2      -0.084400
     10 CAA         -7.2990   -41.8110     5.2460 c6         1 3U2       0.122700
     11 NAG         -7.7300   -41.7730     6.6530 ns         1 3U2      -0.500900
     12 CAL         -8.2030   -42.8460     7.3770 c          1 3U2       0.613700
     13 OAM         -8.2680   -43.9640     6.8820 o          1 3U2      -0.612100
     14 CAN         -8.6250   -42.5680     8.8070 ca         1 3U2      -0.143600
     15 CAO         -8.5620   -41.2710     9.3760 ca         1 3U2      -0.072500
     16 CAP         -8.9630   -41.0540    10.7060 ca         1 3U2      -0.120000
     17 CAQ         -9.4330   -42.1210    11.4880 ca         1 3U2      -0.091000
     18 CAR         -9.5010   -43.4090    10.9380 ca         1 3U2      -0.120000
     19 CAS         -9.1020   -43.6320     9.6090 ca         1 3U2      -0.072500
     20 H1          -4.5500   -41.9180     4.5810 hc         1 3U2       0.042367
     21 H2          -5.4220   -41.5130     3.0990 hc         1 3U2       0.042367
     22 H3          -4.3870   -40.3030     3.8880 hc         1 3U2       0.042367
     23 H4          -5.8430   -40.3440     5.8840 hc         1 3U2       0.051700
     24 H5          -6.4510   -38.4760     4.7600 h1         1 3U2       0.029700
     25 H6          -6.0140   -39.2470     2.6630 ho         1 3U2       0.502000
     26 H7          -8.4650   -39.2750     5.9490 h1         1 3U2       0.034700
     27 H8          -8.6830   -37.8240     3.5420 ho         1 3U2       0.441000
     28 H9          -9.5760   -40.2280     3.2680 h1         1 3U2       0.064700
     29 H10        -10.9030   -39.6640     5.1320 ho         1 3U2       0.508000
     30 H11         -9.1870   -42.6350     4.4990 hc         1 3U2       0.075200
     31 H12         -8.1550   -41.9530     3.2670 hc         1 3U2       0.075200
     32 H13         -6.7670   -42.7640     5.1010 h1         1 3U2       0.082700
     33 H14         -7.6970   -40.8890     7.1380 hn         1 3U2       0.310500
     34 H15         -8.2060   -40.4180     8.8040 ha         1 3U2       0.121500
     35 H16         -8.9100   -40.0540    11.1310 ha         1 3U2       0.116000
     36 H17         -9.7420   -41.9490    12.5160 ha         1 3U2       0.114000
     37 H18         -9.8650   -44.2380    11.5410 ha         1 3U2       0.116000
     38 H19         -9.1640   -44.6400     9.2030 ha         1 3U2       0.121500
@<TRIPOS>BOND
     1     1     2 1   
     2     1    20 1   
     3     1    21 1   
     4     1    22 1   
     5     2     3 1   
     6     2    10 1   
     7     2    23 1   
     8     3     4 1   
     9     3     5 1   
    10     3    24 1   
    11     4    25 1   
    12     5     6 1   
    13     5     7 1   
    14     5    26 1   
    15     6    27 1   
    16     7     8 1   
    17     7     9 1   
    18     7    28 1   
    19     8    29 1   
    20     9    10 1   
    21     9    30 1   
    22     9    31 1   
    23    10    11 1   
    24    10    32 1   
    25    11    12 1   
    26    11    33 1   
    27    12    13 2   
    28    12    14 1   
    29    14    15 ar  
    30    14    19 ar  
    31    15    16 ar  
    32    15    34 1   
    33    16    17 ar  
    34    16    35 1   
    35    17    18 ar  
    36    17    36 1   
    37    18    19 ar  
    38    18    37 1   
    39    19    38 1   
@<TRIPOS>SUBSTRUCTURE
     1 3U2         1 TEMP              0 ****  ****    0 ROOT
