@<TRIPOS>MOLECULE
3U2
   38    39     1     0     0
SMALL
abcg2


@<TRIPOS>ATOM
      1 CAK         -5.0870   -41.0200     4.3450 c3         1 3U2      -0.091100
      2 CAB         -6.3950   -40.5370     4.9670 c6         1 3U2      -0.102700
      3 CAC         -7.0710   -39.4430     4.1080 c6         1 3U2       0.150300
      4 OAJ         -7.0780   -39.7300     2.7060 oh         1 3U2      -0.708000
      5 CAD         -8.5150   -39.2780     4.5600 c6         1 3U2       0.139300
      6 OAI         -9.1770   -38.1540     3.9780 oh         1 3U2      -0.655000
      7 CAE         -9.3480   -40.5140     4.2290 c6         1 3U2       0.181300
      8 OAH        -10.4800   -40.6110     5.1060 oh         1 3U2      -0.729000
      9 CAF         -8.5310   -41.8030     4.3270 c6         1 3U2      -0.084400
     10 CAA         -7.3410   -41.7260     5.2900 c6         1 3U2       0.122700
     11 NAG         -7.7750   -41.6630     6.6860 ns         1 3U2      -0.500900
     12 CAL         -8.0830   -42.7570     7.4080 c          1 3U2       0.613700
     13 OAM         -8.0180   -43.9000     6.9450 o          1 3U2      -0.612100
     14 CAN         -8.5110   -42.5190     8.8250 ca         1 3U2      -0.143600
     15 CAO         -8.1260   -41.3900     9.5530 ca         1 3U2      -0.072500
     16 CAP         -8.5390   -41.2310    10.8710 ca         1 3U2      -0.120000
     17 CAQ         -9.3440   -42.1930    11.4720 ca         1 3U2      -0.091000
     18 CAR         -9.7290   -43.3210    10.7530 ca         1 3U2      -0.120000
     19 CAS         -9.3090   -43.4860     9.4400 ca         1 3U2      -0.072500
     20 H1          -4.5560   -41.6710     5.0410 hc         1 3U2       0.042367
     21 H2          -5.2700   -41.5860     3.4300 hc         1 3U2       0.042367
     22 H3          -4.4320   -40.1790     4.1020 hc         1 3U2       0.042367
     23 H4          -6.1510   -40.0520     5.9150 hc         1 3U2       0.051700
     24 H5          -6.5370   -38.5010     4.2750 h1         1 3U2       0.029700
     25 H6          -6.1760   -39.6600     2.3730 ho         1 3U2       0.502000
     26 H7          -8.5000   -39.1590     5.6490 h1         1 3U2       0.034700
     27 H8          -8.7870   -37.3480     4.3390 ho         1 3U2       0.441000
     28 H9          -9.7070   -40.4010     3.2020 h1         1 3U2       0.064700
     29 H10        -10.9910   -39.7960     5.0130 ho         1 3U2       0.508000
     30 H11         -9.1900   -42.6200     4.6190 hc         1 3U2       0.075200
     31 H12         -8.1370   -42.0390     3.3380 hc         1 3U2       0.075200
     32 H13         -6.7840   -42.6560     5.1990 h1         1 3U2       0.082700
     33 H14         -7.9540   -40.7590     7.0890 hn         1 3U2       0.310500
     34 H15         -7.4820   -40.6410     9.1110 ha         1 3U2       0.121500
     35 H16         -8.2260   -40.3580    11.4290 ha         1 3U2       0.116000
     36 H17         -9.6670   -42.0660    12.4980 ha         1 3U2       0.114000
     37 H18        -10.3560   -44.0730    11.2170 ha         1 3U2       0.116000
     38 H19         -9.5970   -44.3620     8.8760 ha         1 3U2       0.121500
@<TRIPOS>BOND
     1     1     2 1   
     2     1    20 1   
     3     1    21 1   
     4     1    22 1   
     5     2     3 1   
     6     2    10 1   
     7     2    23 1   
     8     3     4 1   
     9     3     5 1   
    10     3    24 1   
    11     4    25 1   
    12     5     6 1   
    13     5     7 1   
    14     5    26 1   
    15     6    27 1   
    16     7     8 1   
    17     7     9 1   
    18     7    28 1   
    19     8    29 1   
    20     9    10 1   
    21     9    30 1   
    22     9    31 1   
    23    10    11 1   
    24    10    32 1   
    25    11    12 1   
    26    11    33 1   
    27    12    13 2   
    28    12    14 1   
    29    14    15 ar  
    30    14    19 ar  
    31    15    16 ar  
    32    15    34 1   
    33    16    17 ar  
    34    16    35 1   
    35    17    18 ar  
    36    17    36 1   
    37    18    19 ar  
    38    18    37 1   
    39    19    38 1   
@<TRIPOS>SUBSTRUCTURE
     1 3U2         1 TEMP              0 ****  ****    0 ROOT
