@<TRIPOS>MOLECULE
3U3
   31    31     1     0     0
SMALL
No Charge or Current Charge


@<TRIPOS>ATOM
      1 CAK         -5.1490   -41.0810     4.4620 c3         1 3U3      -0.091100
      2 CAB         -6.5260   -40.6500     5.0530 c6         1 3U3      -0.101700
      3 CAC         -7.1490   -39.4050     4.3230 c6         1 3U3       0.144300
      4 OAJ         -6.8680   -39.3950     2.9090 oh         1 3U3      -0.709000
      5 CAD         -8.6880   -39.3280     4.5590 c6         1 3U3       0.182300
      6 OAI         -9.2120   -38.1130     3.9900 oh         1 3U3      -0.641000
      7 CAE         -9.4110   -40.5920     3.9600 c6         1 3U3       0.178300
      8 OAH        -10.6950   -40.8010     4.5840 oh         1 3U3      -0.732000
      9 CAF         -8.5430   -41.8860     4.0390 c6         1 3U3      -0.117400
     10 CAA         -7.5040   -41.8700     5.1900 c6         1 3U3       0.125700
     11 NAG         -8.1760   -41.8610     6.5000 ns         1 3U3      -0.504900
     12 CAL         -8.7070   -42.9580     7.1340 c          1 3U3       0.595100
     13 OAM         -8.6380   -44.0870     6.6690 o          1 3U3      -0.621100
     14 CAN         -9.3840   -42.6600     8.4650 c3         1 3U3      -0.174100
     15 H1          -4.6740   -41.8410     5.0940 hc         1 3U3       0.042033
     16 H2          -5.2530   -41.5120     3.4580 hc         1 3U3       0.042033
     17 H3          -4.4560   -40.2330     4.4010 hc         1 3U3       0.042033
     18 H4          -6.2770   -40.3200     6.0720 hc         1 3U3       0.051700
     19 H5          -6.6970   -38.5080     4.7730 h1         1 3U3       0.030700
     20 H6          -5.8900   -39.3500     2.8130 ho         1 3U3       0.501000
     21 H7          -8.8570   -39.3170     5.6460 h1         1 3U3       0.041700
     22 H8          -8.7140   -38.0030     3.1490 ho         1 3U3       0.438000
     23 H9          -9.5700   -40.3950     2.8880 h1         1 3U3       0.064700
     24 H10        -11.1880   -41.4360     4.0150 ho         1 3U3       0.505000
     25 H11         -9.1790   -42.7780     4.1150 hc         1 3U3       0.067200
     26 H12         -7.9990   -42.0010     3.0910 hc         1 3U3       0.067200
     27 H13         -6.9150   -42.7980     5.1390 h1         1 3U3       0.081700
     28 H14         -8.2890   -40.9750     6.9760 hn         1 3U3       0.311500
     29 H15         -8.6740   -42.1400     9.1180 hc         1 3U3       0.060367
     30 H16        -10.1570   -41.8990     8.3090 hc         1 3U3       0.060367
     31 H17         -9.7910   -43.5580     8.9440 hc         1 3U3       0.060367
@<TRIPOS>BOND
     1     1     2 1   
     2     1    15 1   
     3     1    16 1   
     4     1    17 1   
     5     2     3 1   
     6     2    10 1   
     7     2    18 1   
     8     3     4 1   
     9     3     5 1   
    10     3    19 1   
    11     4    20 1   
    12     5     6 1   
    13     5     7 1   
    14     5    21 1   
    15     6    22 1   
    16     7     8 1   
    17     7     9 1   
    18     7    23 1   
    19     8    24 1   
    20     9    10 1   
    21     9    25 1   
    22     9    26 1   
    23    10    11 1   
    24    10    27 1   
    25    11    12 1   
    26    11    28 1   
    27    12    13 2   
    28    12    14 1   
    29    14    29 1   
    30    14    30 1   
    31    14    31 1   
@<TRIPOS>SUBSTRUCTURE
     1 3U3         1 TEMP              0 ****  ****    0 ROOT
