@<TRIPOS>MOLECULE
3U3
   31    31     1     0     0
SMALL
abcg2


@<TRIPOS>ATOM
      1 CAK         -5.1860   -40.9960     4.7180 c3         1 3U3      -0.091100
      2 CAB         -6.6150   -40.5730     5.0500 c6         1 3U3      -0.101700
      3 CAC         -7.1410   -39.5130     4.0600 c6         1 3U3       0.144300
      4 OAJ         -6.9060   -39.8380     2.6860 oh         1 3U3      -0.709000
      5 CAD         -8.6400   -39.3320     4.2590 c6         1 3U3       0.182300
      6 OAI         -9.1760   -38.2360     3.5180 oh         1 3U3      -0.641000
      7 CAE         -9.4220   -40.5870     3.8800 c6         1 3U3       0.178300
      8 OAH        -10.6100   -40.5840     4.6880 oh         1 3U3      -0.732000
      9 CAF         -8.5920   -41.8640     4.0550 c6         1 3U3      -0.117400
     10 CAA         -7.5580   -41.8010     5.1840 c6         1 3U3       0.125700
     11 NAG         -8.1880   -41.8180     6.5040 ns         1 3U3      -0.504900
     12 CAL         -8.5580   -42.9500     7.1300 c          1 3U3       0.595100
     13 OAM         -8.3570   -44.0730     6.6560 o          1 3U3      -0.621100
     14 CAN         -9.2360   -42.7760     8.4690 c3         1 3U3      -0.174100
     15 H1          -4.7840   -41.6300     5.5110 hc         1 3U3       0.042033
     16 H2          -5.1490   -41.5640     3.7860 hc         1 3U3       0.042033
     17 H3          -4.5320   -40.1270     4.6150 hc         1 3U3       0.042033
     18 H4          -6.5930   -40.0720     6.0220 hc         1 3U3       0.051700
     19 H5          -6.6460   -38.5630     4.2900 h1         1 3U3       0.030700
     20 H6          -5.9600   -39.7730     2.5140 ho         1 3U3       0.501000
     21 H7          -8.7970   -39.1560     5.3290 h1         1 3U3       0.041700
     22 H8          -8.7820   -37.4220     3.8550 ho         1 3U3       0.438000
     23 H9          -9.7070   -40.4960     2.8280 h1         1 3U3       0.064700
     24 H10        -11.1640   -41.3220     4.4070 ho         1 3U3       0.505000
     25 H11         -9.2620   -42.7100     4.2190 hc         1 3U3       0.067200
     26 H12         -8.0540   -42.0520     3.1250 hc         1 3U3       0.067200
     27 H13         -6.9610   -42.7100     5.1340 h1         1 3U3       0.081700
     28 H14         -8.4300   -40.9400     6.9340 hn         1 3U3       0.311500
     29 H15         -8.6560   -43.3030     9.2280 hc         1 3U3       0.060367
     30 H16         -9.3450   -41.7320     8.7610 hc         1 3U3       0.060367
     31 H17        -10.2230   -43.2400     8.4230 hc         1 3U3       0.060367
@<TRIPOS>BOND
     1     1     2 1   
     2     1    15 1   
     3     1    16 1   
     4     1    17 1   
     5     2     3 1   
     6     2    10 1   
     7     2    18 1   
     8     3     4 1   
     9     3     5 1   
    10     3    19 1   
    11     4    20 1   
    12     5     6 1   
    13     5     7 1   
    14     5    21 1   
    15     6    22 1   
    16     7     8 1   
    17     7     9 1   
    18     7    23 1   
    19     8    24 1   
    20     9    10 1   
    21     9    25 1   
    22     9    26 1   
    23    10    11 1   
    24    10    27 1   
    25    11    12 1   
    26    11    28 1   
    27    12    13 2   
    28    12    14 1   
    29    14    29 1   
    30    14    30 1   
    31    14    31 1   
@<TRIPOS>SUBSTRUCTURE
     1 3U3         1 TEMP              0 ****  ****    0 ROOT
