@<TRIPOS>MOLECULE
3U4
   14    14     1     0     0
SMALL
No Charge or Current Charge


@<TRIPOS>ATOM
      1 C1          -1.6670    -0.2630     0.0500 c          1 3U4       0.719600
      2 C2          -0.1640    -0.2700     0.0220 ca         1 3U4      -0.169600
      3 C3           0.5330    -1.4870    -0.1510 ca         1 3U4      -0.071000
      4 C4           1.9390    -1.5030    -0.1820 ca         1 3U4      -0.165000
      5 C5           2.6630    -0.3090    -0.0350 ca         1 3U4      -0.117000
      6 C6           1.9770     0.9020     0.1460 ca         1 3U4      -0.199000
      7 C7           0.5720     0.9230     0.1750 ca         1 3U4       0.192000
      8 O8          -2.2300    -1.1290     0.7050 o          1 3U4      -0.711000
      9 O9          -2.2630     0.5540    -0.6370 o          1 3U4      -0.711000
     10 F10         -0.0540     2.1040     0.3800 f          1 3U4      -0.173000
     11 H1          -0.0170    -2.4190    -0.2670 ha         1 3U4       0.132000
     12 H2           2.4670    -2.4440    -0.3190 ha         1 3U4       0.088000
     13 H3           3.7510    -0.3240    -0.0580 ha         1 3U4       0.084000
     14 H4           2.5330     1.8280     0.2680 ha         1 3U4       0.100000
@<TRIPOS>BOND
     1     1     2 1   
     2     1     8 1   
     3     1     9 1   
     4     2     3 ar  
     5     2     7 ar  
     6     3     4 ar  
     7     3    11 1   
     8     4     5 ar  
     9     4    12 1   
    10     5     6 ar  
    11     5    13 1   
    12     6     7 ar  
    13     6    14 1   
    14     7    10 1   
@<TRIPOS>SUBSTRUCTURE
     1 3U4         1 TEMP              0 ****  ****    0 ROOT
