@<TRIPOS>MOLECULE
3U4
   14    14     1     0     0
SMALL
bcc


@<TRIPOS>ATOM
      1 C1          -1.6980    -0.2920     0.0210 c          1 3U4       0.930200
      2 C2          -0.1670    -0.2540     0.0140 ca         1 3U4      -0.169600
      3 C3           0.5450    -1.4550    -0.0040 ca         1 3U4      -0.089000
      4 C4           1.9310    -1.4980    -0.0140 ca         1 3U4      -0.183000
      5 C5           2.6540    -0.3130    -0.0060 ca         1 3U4      -0.135000
      6 C6           1.9820     0.8990     0.0120 ca         1 3U4      -0.217000
      7 C7           0.5970     0.9100     0.0210 ca         1 3U4       0.156900
      8 O8          -2.2060    -1.4290     0.0400 o          1 3U4      -0.816300
      9 O9          -2.3010     0.7940     0.0060 o          1 3U4      -0.816300
     10 F10          0.0180     2.1200     0.0390 f          1 3U4      -0.137900
     11 H1          -0.0210    -2.3770    -0.0090 ha         1 3U4       0.150000
     12 H2           2.4440    -2.4510    -0.0290 ha         1 3U4       0.106000
     13 H3           3.7350    -0.3260    -0.0130 ha         1 3U4       0.102000
     14 H4           2.5260     1.8360     0.0200 ha         1 3U4       0.118000
@<TRIPOS>BOND
     1     1     2 1   
     2     1     8 1   
     3     1     9 1   
     4     2     3 ar  
     5     2     7 ar  
     6     3     4 ar  
     7     3    11 1   
     8     4     5 ar  
     9     4    12 1   
    10     5     6 ar  
    11     5    13 1   
    12     6     7 ar  
    13     6    14 1   
    14     7    10 1   
@<TRIPOS>SUBSTRUCTURE
     1 3U4         1 TEMP              0 ****  ****    0 ROOT
