@<TRIPOS>MOLECULE
3U5
   38    42     1     0     0
SMALL
No Charge or Current Charge


@<TRIPOS>ATOM
      1 C12          3.2940     0.7870    -0.4640 ca         1 3U5      -0.060000
      2 C11          4.1970    -0.2850    -0.3540 ca         1 3U5      -0.081000
      3 C16          5.4470    -0.2250    -1.0020 ca         1 3U5      -0.092000
      4 C15          6.3480    -1.2970    -0.8920 ca         1 3U5      -0.103000
      5 C14          6.0010    -2.4280    -0.1370 ca         1 3U5      -0.098000
      6 C13          4.7530    -2.4870     0.5100 ca         1 3U5      -0.081000
      7 C10          3.8360    -1.4230     0.4120 ca         1 3U5       0.271000
      8 N3           2.6440    -1.5040     1.0460 nb         1 3U5      -0.654000
      9 C9           1.7770    -0.4680     0.9310 ca         1 3U5       0.372900
     10 C8           2.0480     0.6970     0.1830 ca         1 3U5      -0.086800
     11 C7           1.0820     1.7950     0.1030 cc         1 3U5      -0.046300
     12 C2          -0.3420     1.7250     0.0930 ca         1 3U5      -0.117000
     13 C3          -1.2310     0.6390     0.0750 ca         1 3U5      -0.063000
     14 N2           1.4120     3.1440     0.0350 na         1 3U5       0.020500
     15 N1           0.2760     3.9630     0.0140 nc         1 3U5      -0.268400
     16 C1          -0.7660     3.0320     0.0470 ca         1 3U5      -0.072000
     17 C6          -2.1380     3.3190     0.0240 ca         1 3U5      -0.076000
     18 C5          -3.0620     2.2520     0.0310 ca         1 3U5      -0.091000
     19 C4          -2.6200     0.9030     0.0460 ca         1 3U5      -0.001000
     20 C17         -3.5720    -0.2120     0.0390 cc         1 3U5      -0.186000
     21 S1          -3.2600    -1.8210     0.6230 ss         1 3U5      -0.117400
     22 C19         -4.8390    -0.0890    -0.4990 cd         1 3U5       0.326900
     23 N4          -5.5990    -1.2530    -0.4410 nd         1 3U5      -0.728000
     24 C18         -4.8860    -2.1900     0.1230 cc         1 3U5       0.703300
     25 N5          -5.4480    -3.3920     0.2570 nv         1 3U5      -1.045900
     26 H1           3.5530     1.6630    -1.0550 ha         1 3U5       0.117000
     27 H2           5.7210     0.6490    -1.5890 ha         1 3U5       0.116000
     28 H3           7.3130    -1.2500    -1.3930 ha         1 3U5       0.118000
     29 H4           6.6980    -3.2590    -0.0500 ha         1 3U5       0.119000
     30 H5           4.4920    -3.3650     1.0930 ha         1 3U5       0.134000
     31 H6           0.8460    -0.5710     1.4850 h4         1 3U5       0.031100
     32 H7          -0.8640    -0.3820     0.0620 ha         1 3U5       0.118000
     33 H8           2.3460     3.5420     0.0270 hn         1 3U5       0.372000
     34 H9          -2.4860     4.3490    -0.0020 ha         1 3U5       0.129000
     35 H10         -4.1230     2.4850     0.0270 ha         1 3U5       0.113000
     36 H11         -5.2650     0.7990    -0.9490 h4         1 3U5       0.039100
     37 H12         -4.8170    -4.1790     0.3550 hn         1 3U5       0.483000
     38 H13         -6.2740    -3.5440    -0.3080 hn         1 3U5       0.483000
@<TRIPOS>BOND
     1     1     2 ar  
     2     1    10 ar  
     3     1    26 1   
     4     2     3 ar  
     5     2     7 ar  
     6     3     4 ar  
     7     3    27 1   
     8     4     5 ar  
     9     4    28 1   
    10     5     6 ar  
    11     5    29 1   
    12     6     7 ar  
    13     6    30 1   
    14     7     8 ar  
    15     8     9 ar  
    16     9    10 ar  
    17     9    31 1   
    18    10    11 1   
    19    11    12 2   
    20    11    14 1   
    21    12    13 ar  
    22    12    16 ar  
    23    13    19 ar  
    24    13    32 1   
    25    14    15 1   
    26    14    33 1   
    27    15    16 2   
    28    16    17 ar  
    29    17    18 ar  
    30    17    34 1   
    31    18    19 ar  
    32    18    35 1   
    33    19    20 1   
    34    20    21 1   
    35    20    22 2   
    36    21    24 1   
    37    22    23 1   
    38    22    36 1   
    39    23    24 2   
    40    24    25 1   
    41    25    37 1   
    42    25    38 1   
@<TRIPOS>SUBSTRUCTURE
     1 3U5         1 TEMP              0 ****  ****    0 ROOT
