@<TRIPOS>MOLECULE
3U5
   38    42     1     0     0
SMALL
abcg2


@<TRIPOS>ATOM
      1 C12          3.3030     0.7720    -0.4760 ca         1 3U5      -0.060000
      2 C11          4.2580    -0.2550    -0.3530 ca         1 3U5      -0.081000
      3 C16          5.5270    -0.1950    -0.9730 ca         1 3U5      -0.092000
      4 C15          6.4130    -1.2270    -0.8260 ca         1 3U5      -0.103000
      5 C14          6.0680    -2.3600    -0.0570 ca         1 3U5      -0.098000
      6 C13          4.8450    -2.4440     0.5510 ca         1 3U5      -0.081000
      7 C10          3.9110    -1.3940     0.4160 ca         1 3U5       0.271000
      8 N3           2.7080    -1.5020     1.0310 nb         1 3U5      -0.654000
      9 C9           1.8530    -0.5290     0.9060 ca         1 3U5       0.372900
     10 C8           2.0880     0.6520     0.1530 ca         1 3U5      -0.086800
     11 C7           1.0660     1.6830     0.0840 cc         1 3U5      -0.046300
     12 C2          -0.3320     1.6240     0.0480 ca         1 3U5      -0.117000
     13 C3          -1.2880     0.5890     0.0420 ca         1 3U5      -0.063000
     14 N2           1.3550     2.9950     0.0210 na         1 3U5       0.020500
     15 N1           0.3140     3.8050    -0.0460 nc         1 3U5      -0.268400
     16 C1          -0.7360     2.9830    -0.0350 ca         1 3U5      -0.072000
     17 C6          -2.1100     3.3100    -0.0970 ca         1 3U5      -0.076000
     18 C5          -3.0140     2.2920    -0.0830 ca         1 3U5      -0.091000
     19 C4          -2.6240     0.9130    -0.0180 ca         1 3U5      -0.001000
     20 C17         -3.6610    -0.1080    -0.0180 cc         1 3U5      -0.186000
     21 S1          -3.2890    -1.8110     0.1030 ss         1 3U5      -0.117400
     22 C19         -5.0140     0.0200    -0.1000 cd         1 3U5       0.326900
     23 N4          -5.7570    -1.1220    -0.0750 nd         1 3U5      -0.728000
     24 C18         -4.9930    -2.1680     0.0280 cc         1 3U5       0.703300
     25 N5          -5.4390    -3.4350     0.1320 nv         1 3U5      -1.045900
     26 H1           3.5390     1.6390    -1.0840 ha         1 3U5       0.117000
     27 H2           5.7860     0.6760    -1.5620 ha         1 3U5       0.116000
     28 H3           7.3840    -1.1800    -1.3000 ha         1 3U5       0.118000
     29 H4           6.7820    -3.1650     0.0510 ha         1 3U5       0.119000
     30 H5           4.5710    -3.3080     1.1430 ha         1 3U5       0.134000
     31 H6           0.9120    -0.6410     1.4360 h4         1 3U5       0.031100
     32 H7          -0.9660    -0.4460     0.0760 ha         1 3U5       0.118000
     33 H8           2.2810     3.3970     0.0630 hn         1 3U5       0.372000
     34 H9          -2.4320     4.3420    -0.1560 ha         1 3U5       0.129000
     35 H10         -4.0660     2.5380    -0.1270 ha         1 3U5       0.113000
     36 H11         -5.5310     0.9660    -0.1890 h4         1 3U5       0.039100
     37 H12         -4.8190    -4.1970    -0.0860 hn         1 3U5       0.483000
     38 H13         -6.4030    -3.5920    -0.1140 hn         1 3U5       0.483000
@<TRIPOS>BOND
     1     1     2 ar  
     2     1    10 ar  
     3     1    26 1   
     4     2     3 ar  
     5     2     7 ar  
     6     3     4 ar  
     7     3    27 1   
     8     4     5 ar  
     9     4    28 1   
    10     5     6 ar  
    11     5    29 1   
    12     6     7 ar  
    13     6    30 1   
    14     7     8 ar  
    15     8     9 ar  
    16     9    10 ar  
    17     9    31 1   
    18    10    11 1   
    19    11    12 2   
    20    11    14 1   
    21    12    13 ar  
    22    12    16 ar  
    23    13    19 ar  
    24    13    32 1   
    25    14    15 1   
    26    14    33 1   
    27    15    16 2   
    28    16    17 ar  
    29    17    18 ar  
    30    17    34 1   
    31    18    19 ar  
    32    18    35 1   
    33    19    20 1   
    34    20    21 1   
    35    20    22 2   
    36    21    24 1   
    37    22    23 1   
    38    22    36 1   
    39    23    24 2   
    40    24    25 1   
    41    25    37 1   
    42    25    38 1   
@<TRIPOS>SUBSTRUCTURE
     1 3U5         1 TEMP              0 ****  ****    0 ROOT
