@<TRIPOS>MOLECULE
3U6
   47    51     1     0     0
SMALL
bcc


@<TRIPOS>ATOM
      1 C17         -4.8990    -1.5690     1.0660 c5         1 3U6      -0.098900
      2 C18         -5.6380    -2.9230     1.1340 c5         1 3U6      -0.078900
      3 C19         -5.2890    -3.6590    -0.1720 c5         1 3U6      -0.078900
      4 C20         -3.9850    -3.0210    -0.6310 c5         1 3U6      -0.098900
      5 C16         -4.2030    -1.5450    -0.3110 c5         1 3U6       0.225500
      6 N6          -2.9800    -0.7860    -0.3820 nu         1 3U6      -0.862900
      7 C15         -2.9240     0.5740    -0.3460 ca         1 3U6       0.691200
      8 N5          -1.7090     1.0950    -0.1640 nb         1 3U6      -0.760000
      9 C14         -4.0590     1.3840    -0.5190 ca         1 3U6      -0.323300
     10 C13         -3.8760     2.7530    -0.5130 ca         1 3U6      -0.052000
     11 C12         -2.6130     3.2960    -0.3340 ca         1 3U6      -0.312300
     12 C9          -1.5440     2.4160    -0.1540 ca         1 3U6       0.565100
     13 C8          -0.1840     2.9040     0.0500 cc         1 3U6      -0.199000
     14 C2           1.0370     2.1400     0.0960 ca         1 3U6      -0.074800
     15 C3           1.3520     0.7870    -0.0290 ca         1 3U6      -0.005000
     16 C7           0.1850     4.2140     0.2370 cd         1 3U6      -0.092100
     17 N1           1.5300     4.3060     0.3880 na         1 3U6      -0.163400
     18 C1           2.0850     3.0650     0.3070 ca         1 3U6      -0.047200
     19 C6           3.4180     2.6750     0.3970 ca         1 3U6      -0.153000
     20 C5           3.7000     1.3320     0.2690 ca         1 3U6      -0.093000
     21 C4           2.6790     0.3840     0.0560 ca         1 3U6      -0.181500
     22 C10          2.9970    -1.0350    -0.0780 cc         1 3U6       0.490900
     23 S1           4.6310    -1.6520     0.0070 ss         1 3U6      -0.350800
     24 N3           2.1310    -1.9700    -0.2720 nd         1 3U6      -0.307000
     25 N2           2.6500    -3.2100    -0.3750 nd         1 3U6      -0.409000
     26 C11          3.9440    -3.2260    -0.2500 cc         1 3U6       0.657300
     27 N4           4.6990    -4.3430    -0.2520 nv         1 3U6      -0.929500
     28 H1          -5.5680    -0.7180     1.2010 hc         1 3U6       0.051950
     29 H2          -4.1380    -1.5040     1.8470 hc         1 3U6       0.051950
     30 H3          -5.2930    -3.4970     1.9950 hc         1 3U6       0.043950
     31 H4          -6.7150    -2.8010     1.2520 hc         1 3U6       0.043950
     32 H5          -5.2110    -4.7380    -0.0390 hc         1 3U6       0.043950
     33 H6          -6.0630    -3.4850    -0.9250 hc         1 3U6       0.043950
     34 H7          -3.1450    -3.4030    -0.0400 hc         1 3U6       0.051950
     35 H8          -3.7580    -3.1940    -1.6840 hc         1 3U6       0.051950
     36 H9          -4.8970    -1.1420    -1.0560 h1         1 3U6       0.059700
     37 H10         -2.1490    -1.2440    -0.0410 hn         1 3U6       0.437800
     38 H11         -5.0450     0.9630    -0.6540 ha         1 3U6       0.140000
     39 H12         -4.7290     3.4060    -0.6490 ha         1 3U6       0.127000
     40 H13         -2.4690     4.3670    -0.3400 ha         1 3U6       0.133000
     41 H14          0.5680     0.0610    -0.1820 ha         1 3U6       0.178000
     42 H15         -0.4250     5.1030     0.2770 h4         1 3U6       0.165000
     43 H16          2.0300     5.1640     0.5530 hn         1 3U6       0.301700
     44 H17          4.2080     3.3960     0.5590 ha         1 3U6       0.133000
     45 H18          4.7350     1.0180     0.3370 ha         1 3U6       0.130000
     46 H19          4.2530    -5.1760    -0.6030 hn         1 3U6       0.426800
     47 H20          5.6780    -4.2690    -0.4710 hn         1 3U6       0.426800
@<TRIPOS>BOND
     1     1     2 1   
     2     1     5 1   
     3     1    28 1   
     4     1    29 1   
     5     2     3 1   
     6     2    30 1   
     7     2    31 1   
     8     3     4 1   
     9     3    32 1   
    10     3    33 1   
    11     4     5 1   
    12     4    34 1   
    13     4    35 1   
    14     5     6 1   
    15     5    36 1   
    16     6     7 1   
    17     6    37 1   
    18     7     8 ar  
    19     7     9 ar  
    20     8    12 ar  
    21     9    10 ar  
    22     9    38 1   
    23    10    11 ar  
    24    10    39 1   
    25    11    12 ar  
    26    11    40 1   
    27    12    13 1   
    28    13    14 1   
    29    13    16 2   
    30    14    15 ar  
    31    14    18 ar  
    32    15    21 ar  
    33    15    41 1   
    34    16    17 1   
    35    16    42 1   
    36    17    18 1   
    37    17    43 1   
    38    18    19 ar  
    39    19    20 ar  
    40    19    44 1   
    41    20    21 ar  
    42    20    45 1   
    43    21    22 1   
    44    22    23 1   
    45    22    24 2   
    46    23    26 1   
    47    24    25 1   
    48    25    26 2   
    49    26    27 1   
    50    27    46 1   
    51    27    47 1   
@<TRIPOS>SUBSTRUCTURE
     1 3U6         1 TEMP              0 ****  ****    0 ROOT
