@<TRIPOS>MOLECULE
3U6
   47    51     1     0     0
SMALL
No Charge or Current Charge


@<TRIPOS>ATOM
      1 C17         -4.0980    -1.2900     1.1720 c5         1 3U6      -0.098900
      2 C18         -5.1370    -2.3130     1.7190 c5         1 3U6      -0.078900
      3 C19         -5.2920    -3.3790     0.5790 c5         1 3U6      -0.078900
      4 C20         -4.2870    -2.9300    -0.5210 c5         1 3U6      -0.098900
      5 C16         -4.3440    -1.3950    -0.3540 c5         1 3U6       0.225500
      6 N6          -3.1090    -0.9030    -1.0090 nu         1 3U6      -0.918100
      7 C15         -3.0440     0.4610    -1.0270 ca         1 3U6       0.625900
      8 N5          -1.8750     0.8770    -0.5550 nb         1 3U6      -0.760000
      9 C14         -4.0410     1.3020    -1.5370 ca         1 3U6      -0.240000
     10 C13         -3.8180     2.6830    -1.5210 ca         1 3U6      -0.034000
     11 C12         -2.5980     3.1380    -1.0020 ca         1 3U6      -0.229000
     12 C9          -1.6460     2.2090    -0.5280 ca         1 3U6       0.499800
     13 C8          -0.3570     2.6680     0.0150 cc         1 3U6      -0.199000
     14 C2           0.8730     1.9490     0.2260 ca         1 3U6      -0.074800
     15 C3           1.2780     0.6620    -0.1620 ca         1 3U6       0.013000
     16 C7          -0.2170     3.9110     0.6300 cd         1 3U6      -0.142100
     17 N1           1.0880     4.0040     1.1730 na         1 3U6      -0.213700
     18 C1           1.7030     2.7890     0.9130 ca         1 3U6      -0.047200
     19 C6           2.9960     2.3970     1.2740 ca         1 3U6      -0.135000
     20 C5           3.4340     1.1070     0.9080 ca         1 3U6      -0.075000
     21 C4           2.5830     0.2230     0.1850 ca         1 3U6      -0.181500
     22 C10          3.0350    -1.1250    -0.2040 cc         1 3U6       0.490900
     23 S1           4.6280    -1.7210     0.1870 ss         1 3U6      -0.350800
     24 N3           2.2740    -1.9830    -0.8790 nd         1 3U6      -0.307000
     25 N2           2.9270    -3.1790    -1.1210 nd         1 3U6      -0.409000
     26 C11          4.1380    -3.1580    -0.6170 cc         1 3U6       0.657300
     27 N4           4.9600    -4.2120    -0.7350 nv         1 3U6      -1.039900
     28 H1          -4.2670    -0.2780     1.5590 hc         1 3U6       0.051950
     29 H2          -3.0790    -1.5830     1.4560 hc         1 3U6       0.051950
     30 H3          -4.8010    -2.7630     2.6600 hc         1 3U6       0.043950
     31 H4          -6.0980    -1.8270     1.9250 hc         1 3U6       0.043950
     32 H5          -5.0810    -4.3950     0.9310 hc         1 3U6       0.043950
     33 H6          -6.3180    -3.3830     0.1940 hc         1 3U6       0.043950
     34 H7          -3.2890    -3.3430    -0.3270 hc         1 3U6       0.051950
     35 H8          -4.5900    -3.2560    -1.5220 hc         1 3U6       0.051950
     36 H9          -5.2940    -0.9560    -0.6950 h1         1 3U6       0.059700
     37 H10         -2.2190    -1.2510    -0.6700 hn         1 3U6       0.493000
     38 H11         -4.9590     0.8950    -1.9470 ha         1 3U6       0.122000
     39 H12         -4.5620     3.3780    -1.9060 ha         1 3U6       0.109000
     40 H13         -2.3850     4.2020    -0.9870 ha         1 3U6       0.115000
     41 H14          0.5990     0.0240    -0.7220 ha         1 3U6       0.160000
     42 H15         -0.9390     4.7160     0.7450 h4         1 3U6       0.215000
     43 H16          1.4830     4.7900     1.6820 hn         1 3U6       0.352000
     44 H17          3.6510     3.0690     1.8240 ha         1 3U6       0.115000
     45 H18          4.4400     0.8060     1.1920 ha         1 3U6       0.112000
     46 H19          4.7060    -4.8970    -1.4390 hn         1 3U6       0.482000
     47 H20          5.9500    -4.0440    -0.6010 hn         1 3U6       0.482000
@<TRIPOS>BOND
     1     1     2 1   
     2     1     5 1   
     3     1    28 1   
     4     1    29 1   
     5     2     3 1   
     6     2    30 1   
     7     2    31 1   
     8     3     4 1   
     9     3    32 1   
    10     3    33 1   
    11     4     5 1   
    12     4    34 1   
    13     4    35 1   
    14     5     6 1   
    15     5    36 1   
    16     6     7 1   
    17     6    37 1   
    18     7     8 ar  
    19     7     9 ar  
    20     8    12 ar  
    21     9    10 ar  
    22     9    38 1   
    23    10    11 ar  
    24    10    39 1   
    25    11    12 ar  
    26    11    40 1   
    27    12    13 1   
    28    13    14 1   
    29    13    16 2   
    30    14    15 ar  
    31    14    18 ar  
    32    15    21 ar  
    33    15    41 1   
    34    16    17 1   
    35    16    42 1   
    36    17    18 1   
    37    17    43 1   
    38    18    19 ar  
    39    19    20 ar  
    40    19    44 1   
    41    20    21 ar  
    42    20    45 1   
    43    21    22 1   
    44    22    23 1   
    45    22    24 2   
    46    23    26 1   
    47    24    25 1   
    48    25    26 2   
    49    26    27 1   
    50    27    46 1   
    51    27    47 1   
@<TRIPOS>SUBSTRUCTURE
     1 3U6         1 TEMP              0 ****  ****    0 ROOT
