@<TRIPOS>MOLECULE
3U7
   39    40     1     0     0
SMALL
No Charge or Current Charge


@<TRIPOS>ATOM
      1 C3           7.1630    -1.7210     0.9560 c          1 3U7       0.721000
      2 C4           5.8290    -1.9820     0.2360 c3         1 3U7      -0.210400
      3 C5           4.8130    -0.8620     0.5750 c3         1 3U7      -0.058400
      4 C6           3.4470    -1.0540    -0.1130 c3         1 3U7       0.151600
      5 C8           1.3010     0.1710    -0.1630 ca         1 3U7       0.216100
      6 C9           0.7120    -0.7700    -1.0340 ca         1 3U7      -0.222000
      7 C10         -0.6140    -0.6050    -1.4630 ca         1 3U7      -0.028000
      8 C11         -1.3680     0.5030    -1.0300 ca         1 3U7      -0.226600
      9 C12         -0.7850     1.4440    -0.1550 ca         1 3U7       0.205000
     10 O1           7.9970    -1.0300     0.3910 o          1 3U7      -0.733500
     11 O2           7.3050    -2.1700     2.0830 o          1 3U7      -0.733500
     12 O7           2.6050     0.0410     0.2810 os         1 3U7      -0.316100
     13 C13          0.5480     1.2790     0.2780 ca         1 3U7       0.038000
     14 Cl1          1.2810     2.4540     1.3820 cl         1 3U7      -0.152000
     15 Cl2         -1.7350     2.8120     0.4420 cl         1 3U7      -0.161000
     16 C16         -2.7800     0.6670    -1.5030 c          1 3U7       0.594700
     17 O17         -3.1210     1.6500    -2.1490 o          1 3U7      -0.525100
     18 C18         -3.7820    -0.4440    -1.1710 c3         1 3U7      -0.174400
     19 C19         -4.5970    -0.0990     0.1030 c3         1 3U7      -0.089700
     20 C20         -5.5930    -1.1630     0.4790 cc         1 3U7       0.400800
     21 N21         -5.2990    -2.2570     1.2530 na         1 3U7      -0.298500
     22 C22         -6.4500    -3.0100     1.3740 cc         1 3U7      -0.240000
     23 C23         -7.4010    -2.3300     0.6580 cd         1 3U7       0.234900
     24 N24         -6.8610    -1.1860     0.1050 nd         1 3U7      -0.680000
     25 H1           5.9660    -1.9440    -0.8520 hc         1 3U7       0.017200
     26 H2           5.3770    -2.9160     0.5910 hc         1 3U7       0.017200
     27 H3           4.6630    -0.8250     1.6610 hc         1 3U7       0.061200
     28 H4           5.2290     0.1080     0.2750 hc         1 3U7       0.061200
     29 H5           3.5830    -1.0670    -1.2020 h1         1 3U7       0.030200
     30 H6           3.0110    -2.0120     0.2010 h1         1 3U7       0.030200
     31 H7           1.2660    -1.6330    -1.3910 ha         1 3U7       0.135000
     32 H8          -1.0510    -1.3360    -2.1420 ha         1 3U7       0.116000
     33 H16         -4.4730    -0.5730    -2.0120 hc         1 3U7       0.079200
     34 H17         -3.2420    -1.3750    -0.9680 hc         1 3U7       0.079200
     35 H18         -3.9070     0.0650     0.9410 hc         1 3U7       0.062200
     36 H19         -5.1220     0.8520    -0.0510 hc         1 3U7       0.062200
     37 H20         -4.3910    -2.4600     1.6550 hn         1 3U7       0.348000
     38 H21         -6.5100    -3.9350     1.9350 h4         1 3U7       0.154000
     39 H22         -8.4400    -2.6000     0.5090 h4         1 3U7       0.035100
@<TRIPOS>BOND
     1     1     2 1   
     2     1    10 1   
     3     1    11 1   
     4     2     3 1   
     5     2    25 1   
     6     2    26 1   
     7     3     4 1   
     8     3    27 1   
     9     3    28 1   
    10     4    12 1   
    11     4    29 1   
    12     4    30 1   
    13     5     6 ar  
    14     5    12 1   
    15     5    13 ar  
    16     6     7 ar  
    17     6    31 1   
    18     7     8 ar  
    19     7    32 1   
    20     8     9 ar  
    21     8    16 1   
    22     9    13 ar  
    23     9    15 1   
    24    13    14 1   
    25    16    17 2   
    26    16    18 1   
    27    18    19 1   
    28    18    33 1   
    29    18    34 1   
    30    19    20 1   
    31    19    35 1   
    32    19    36 1   
    33    20    21 1   
    34    20    24 2   
    35    21    22 1   
    36    21    37 1   
    37    22    23 2   
    38    22    38 1   
    39    23    24 1   
    40    23    39 1   
@<TRIPOS>SUBSTRUCTURE
     1 3U7         1 TEMP              0 ****  ****    0 ROOT
