@<TRIPOS>MOLECULE
3U7
   39    40     1     0     0
SMALL
abcg2


@<TRIPOS>ATOM
      1 C3           7.2860    -2.0750     0.0940 c          1 3U7       0.721000
      2 C4           5.7570    -2.1210    -0.0840 c3         1 3U7      -0.210400
      3 C5           5.0310    -0.8020     0.1300 c3         1 3U7      -0.058400
      4 C6           3.5410    -0.9880    -0.0530 c3         1 3U7       0.151600
      5 C8           1.5780     0.3460     0.0240 ca         1 3U7       0.216100
      6 C9           0.7430    -0.7300    -0.2580 ca         1 3U7      -0.222000
      7 C10         -0.6210    -0.5360    -0.3470 ca         1 3U7      -0.028000
      8 C11         -1.2190     0.7110    -0.1850 ca         1 3U7      -0.226600
      9 C12         -0.3730     1.7940     0.1040 ca         1 3U7       0.205000
     10 O1           7.8140    -0.9660     0.3020 o          1 3U7      -0.733500
     11 O2           7.8740    -3.1720     0.0030 o          1 3U7      -0.733500
     12 O7           2.8970     0.2750     0.1370 os         1 3U7      -0.316100
     13 C13          0.9970     1.6100     0.2160 ca         1 3U7       0.038000
     14 CL1          2.0430     2.9210     0.5920 cl         1 3U7      -0.152000
     15 CL2         -0.9870     3.3720     0.4000 cl         1 3U7      -0.161000
     16 C16         -2.6950     0.8420    -0.3540 c          1 3U7       0.594700
     17 O17         -3.2140     1.8950    -0.6470 o          1 3U7      -0.525100
     18 C18         -3.5220    -0.4050    -0.1420 c3         1 3U7      -0.174400
     19 C19         -5.0200    -0.1370    -0.1250 c3         1 3U7      -0.089700
     20 C20         -5.7910    -1.4040     0.0320 cc         1 3U7       0.400800
     21 N21         -6.8750    -1.5150     0.8290 na         1 3U7      -0.298500
     22 C22         -7.3590    -2.7870     0.7150 cc         1 3U7      -0.240000
     23 C23         -6.5200    -3.4050    -0.1650 cd         1 3U7       0.234900
     24 N24         -5.5500    -2.5370    -0.5830 nd         1 3U7      -0.680000
     25 H1           5.5480    -2.4980    -1.0920 hc         1 3U7       0.017200
     26 H2           5.3540    -2.8830     0.5920 hc         1 3U7       0.017200
     27 H3           5.2290    -0.4220     1.1340 hc         1 3U7       0.061200
     28 H4           5.3970    -0.0520    -0.5740 hc         1 3U7       0.061200
     29 H5           3.3170    -1.3660    -1.0560 h1         1 3U7       0.030200
     30 H6           3.1530    -1.7110     0.6720 h1         1 3U7       0.030200
     31 H7           1.1420    -1.7220    -0.4120 ha         1 3U7       0.135000
     32 H8          -1.2330    -1.4000    -0.5650 ha         1 3U7       0.116000
     33 H16         -3.2960    -1.1230    -0.9360 hc         1 3U7       0.079200
     34 H17         -3.2070    -0.8860     0.7870 hc         1 3U7       0.079200
     35 H18         -5.2750     0.5490     0.6850 hc         1 3U7       0.062200
     36 H19         -5.3220     0.3550    -1.0530 hc         1 3U7       0.062200
     37 H20         -7.2630    -0.7880     1.4090 hn         1 3U7       0.348000
     38 H21         -8.2240    -3.1290     1.2580 h4         1 3U7       0.154000
     39 H22         -6.5630    -4.4250    -0.5170 h4         1 3U7       0.035100
@<TRIPOS>BOND
     1     1     2 1   
     2     1    10 1   
     3     1    11 1   
     4     2     3 1   
     5     2    25 1   
     6     2    26 1   
     7     3     4 1   
     8     3    27 1   
     9     3    28 1   
    10     4    12 1   
    11     4    29 1   
    12     4    30 1   
    13     5     6 ar  
    14     5    12 1   
    15     5    13 ar  
    16     6     7 ar  
    17     6    31 1   
    18     7     8 ar  
    19     7    32 1   
    20     8     9 ar  
    21     8    16 1   
    22     9    13 ar  
    23     9    15 1   
    24    13    14 1   
    25    16    17 2   
    26    16    18 1   
    27    18    19 1   
    28    18    33 1   
    29    18    34 1   
    30    19    20 1   
    31    19    35 1   
    32    19    36 1   
    33    20    21 1   
    34    20    24 2   
    35    21    22 1   
    36    21    37 1   
    37    22    23 2   
    38    22    38 1   
    39    23    24 1   
    40    23    39 1   
@<TRIPOS>SUBSTRUCTURE
     1 3U7         1 TEMP              0 ****  ****    0 ROOT
