@<TRIPOS>MOLECULE
3U8
   39    40     1     0     0
SMALL
bcc


@<TRIPOS>ATOM
      1 C11         -1.2840    -0.9740    -0.0180 ca         1 3U8      -0.237600
      2 C12         -0.4320    -2.0790     0.0670 ca         1 3U8      -0.033000
      3 C13          0.9310    -1.9050     0.1070 ca         1 3U8      -0.046600
      4 C8           1.5080    -0.6260     0.0580 ca         1 3U8       0.211100
      5 C5           4.9620     0.5320     0.0770 c3         1 3U8      -0.059400
      6 C6           3.4630     0.7210     0.0040 c3         1 3U8       0.128400
      7 C4           5.6730     1.8670    -0.0820 c3         1 3U8      -0.209400
      8 O1           7.7470     0.7040     0.1700 o          1 3U8      -0.839800
      9 O2           7.7920     2.9180    -0.0660 o          1 3U8      -0.839800
     10 C3           7.2090     1.8170     0.0190 c          1 3U8       0.931600
     11 O7           2.8340    -0.5580     0.1020 os         1 3U8      -0.293900
     12 C9           0.6560     0.4730    -0.0310 ca         1 3U8      -0.243000
     13 C10         -0.7170     0.2960    -0.0650 ca         1 3U8      -0.044000
     14 CL1          1.9750    -3.2790     0.2180 cl         1 3U8      -0.090400
     15 C16         -2.7510    -1.1960    -0.0540 c          1 3U8       0.595700
     16 O17         -3.2060    -2.3230    -0.0660 o          1 3U8      -0.552100
     17 C18         -3.6470     0.0160    -0.0650 c3         1 3U8      -0.173400
     18 C19         -5.1290    -0.3210    -0.1070 c3         1 3U8      -0.088700
     19 C20         -5.9670     0.9090    -0.0030 cc         1 3U8       0.401800
     20 N21         -7.1680     1.0330    -0.6080 na         1 3U8      -0.300900
     21 C22         -7.6850     2.2550    -0.2830 cc         1 3U8      -0.272600
     22 C23         -6.7470     2.8310     0.5220 cd         1 3U8       0.301200
     23 N24         -5.6840     1.9870     0.6890 nd         1 3U8      -0.680000
     24 H1          -0.8420    -3.0790     0.1050 ha         1 3U8       0.158000
     25 H2           5.2260     0.0770     1.0350 hc         1 3U8       0.060700
     26 H3           5.2830    -0.1600    -0.7050 hc         1 3U8       0.060700
     27 H4           3.1190     1.3650     0.8210 h1         1 3U8       0.028700
     28 H5           3.1760     1.1960    -0.9400 h1         1 3U8       0.028700
     29 H6           5.4130     2.3100    -1.0500 hc         1 3U8       0.017200
     30 H7           5.3030     2.5790     0.6640 hc         1 3U8       0.017200
     31 H9           1.0530     1.4780    -0.0740 ha         1 3U8       0.149000
     32 H10         -1.3400     1.1770    -0.1310 ha         1 3U8       0.131000
     33 H14         -3.4240     0.6230     0.8170 hc         1 3U8       0.080200
     34 H15         -3.3820     0.6470    -0.9190 hc         1 3U8       0.080200
     35 H16         -5.3750    -0.8470    -1.0320 hc         1 3U8       0.060700
     36 H17         -5.3820    -1.0040     0.7080 hc         1 3U8       0.060700
     37 H18         -7.6070     0.3460    -1.2000 hn         1 3U8       0.297700
     38 H19         -8.6390     2.5950    -0.6480 h4         1 3U8       0.171000
     39 H20         -6.7790     3.8050     0.9860 h4         1 3U8       0.035100
@<TRIPOS>BOND
     1     1     2 ar  
     2     1    13 ar  
     3     1    15 1   
     4     2     3 ar  
     5     2    24 1   
     6     3     4 ar  
     7     3    14 1   
     8     4    11 1   
     9     4    12 ar  
    10     5     6 1   
    11     5     7 1   
    12     5    25 1   
    13     5    26 1   
    14     6    11 1   
    15     6    27 1   
    16     6    28 1   
    17     7    10 1   
    18     7    29 1   
    19     7    30 1   
    20     8    10 1   
    21     9    10 1   
    22    12    13 ar  
    23    12    31 1   
    24    13    32 1   
    25    15    16 2   
    26    15    17 1   
    27    17    18 1   
    28    17    33 1   
    29    17    34 1   
    30    18    19 1   
    31    18    35 1   
    32    18    36 1   
    33    19    20 1   
    34    19    23 2   
    35    20    21 1   
    36    20    37 1   
    37    21    22 2   
    38    21    38 1   
    39    22    23 1   
    40    22    39 1   
@<TRIPOS>SUBSTRUCTURE
     1 3U8         1 TEMP              0 ****  ****    0 ROOT
