@<TRIPOS>MOLECULE
3U8
   39    40     1     0     0
SMALL
No Charge or Current Charge


@<TRIPOS>ATOM
      1 C11         -1.3160    -0.9910     0.2020 ca         1 3U8      -0.237600
      2 C12         -0.4230    -2.0800     0.3330 ca         1 3U8      -0.015000
      3 C13          0.9670    -1.8820     0.2930 ca         1 3U8       0.045000
      4 C8           1.4970    -0.5870     0.1210 ca         1 3U8       0.211100
      5 C5           5.0200     0.6360    -0.0720 c3         1 3U8      -0.059400
      6 C6           3.4940     0.8530    -0.0840 c3         1 3U8       0.151600
      7 C4           5.8230     1.9490    -0.2490 c3         1 3U8      -0.209400
      8 O1           7.8800     1.3760    -1.2830 o          1 3U8      -0.734500
      9 O2           7.9030     1.6500     0.8530 o          1 3U8      -0.734500
     10 C3           7.3330     1.6510    -0.2270 c          1 3U8       0.721000
     11 O7           2.8710    -0.4300     0.0870 os         1 3U8      -0.317100
     12 C9           0.6130     0.5050    -0.0100 ca         1 3U8      -0.225000
     13 C10         -0.7780     0.3060     0.0300 ca         1 3U8      -0.026000
     14 Cl1          2.0350    -3.2780     0.4610 cl         1 3U8      -0.182000
     15 C16         -2.8110    -1.2420     0.2500 c          1 3U8       0.595700
     16 O17         -3.2400    -2.3830     0.3790 o          1 3U8      -0.552100
     17 C18         -3.7830    -0.0540     0.1320 c3         1 3U8      -0.173400
     18 C19         -5.2950    -0.3970     0.2210 c3         1 3U8      -0.088700
     19 C20         -6.1840     0.8130     0.1070 cc         1 3U8       0.401800
     20 N21         -6.6150     1.3450    -1.0820 na         1 3U8      -0.300500
     21 C22         -7.3950     2.4480    -0.7930 cc         1 3U8      -0.240000
     22 C23         -7.3990     2.5370     0.5750 cd         1 3U8       0.235900
     23 N24         -6.6440     1.5200     1.1260 nd         1 3U8      -0.680000
     24 H1          -0.8010    -3.0920     0.4660 ha         1 3U8       0.140000
     25 H2           5.3040     0.1610     0.8750 hc         1 3U8       0.060700
     26 H3           5.2860    -0.0640    -0.8750 hc         1 3U8       0.060700
     27 H4           3.2140     1.5310     0.7320 h1         1 3U8       0.028700
     28 H5           3.1950     1.3040    -1.0390 h1         1 3U8       0.028700
     29 H6           5.5260     2.3540    -1.2250 hc         1 3U8       0.017200
     30 H7           5.5450     2.5880     0.5980 hc         1 3U8       0.017200
     31 H9           0.9850     1.5160    -0.1440 ha         1 3U8       0.131000
     32 H10         -1.4220     1.1760    -0.0760 ha         1 3U8       0.113000
     33 H14         -3.4960     0.6870     0.8880 hc         1 3U8       0.080200
     34 H15         -3.5450     0.4800    -0.7950 hc         1 3U8       0.080200
     35 H16         -5.5530    -1.1110    -0.5700 hc         1 3U8       0.060700
     36 H17         -5.4950    -0.9040     1.1730 hc         1 3U8       0.060700
     37 H18         -6.3900     0.9780    -2.0000 hn         1 3U8       0.348000
     38 H19         -7.8700     3.0650    -1.5460 h4         1 3U8       0.153000
     39 H20         -7.9000     3.2730     1.1920 h4         1 3U8       0.035100
@<TRIPOS>BOND
     1     1     2 ar  
     2     1    13 ar  
     3     1    15 1   
     4     2     3 ar  
     5     2    24 1   
     6     3     4 ar  
     7     3    14 1   
     8     4    11 1   
     9     4    12 ar  
    10     5     6 1   
    11     5     7 1   
    12     5    25 1   
    13     5    26 1   
    14     6    11 1   
    15     6    27 1   
    16     6    28 1   
    17     7    10 1   
    18     7    29 1   
    19     7    30 1   
    20     8    10 1   
    21     9    10 1   
    22    12    13 ar  
    23    12    31 1   
    24    13    32 1   
    25    15    16 2   
    26    15    17 1   
    27    17    18 1   
    28    17    33 1   
    29    17    34 1   
    30    18    19 1   
    31    18    35 1   
    32    18    36 1   
    33    19    20 1   
    34    19    23 2   
    35    20    21 1   
    36    20    37 1   
    37    21    22 2   
    38    21    38 1   
    39    22    23 1   
    40    22    39 1   
@<TRIPOS>SUBSTRUCTURE
     1 3U8         1 TEMP              0 ****  ****    0 ROOT
