@<TRIPOS>MOLECULE
3U9
   43    45     1     0     0
SMALL
abcg2


@<TRIPOS>ATOM
      1 C14         72.3950    25.6020   -64.8270 ca         1 3U9      -0.177000
      2 C11         71.0200    25.7310   -64.6490 ca         1 3U9      -0.105000
      3 C6          73.2670    25.8020   -60.2860 ca         1 3U9      -0.106000
      4 C13         71.4130    27.3080   -62.8590 ca         1 3U9      -0.090000
      5 C4          72.1650    25.1800   -58.2590 ca         1 3U9       0.385900
      6 C24         73.6000    22.4040   -58.7100 cc         1 3U9       0.194900
      7 C5          72.8800    24.7940   -59.3840 ca         1 3U9      -0.110000
      8 C10         72.7850    27.1760   -63.0230 ca         1 3U9      -0.133300
      9 C15         73.2770    26.3210   -64.0210 ca         1 3U9       0.124100
     10 C1          72.9020    27.1040   -60.0410 ca         1 3U9       0.024100
     11 C12         70.5590    26.5840   -63.6690 ca         1 3U9       0.129000
     12 C20         73.2070    23.3890   -59.5990 cd         1 3U9      -0.110000
     13 C2          72.1640    27.4000   -58.8650 ca         1 3U9       0.596900
     14 C16         74.0920    29.3080   -62.7010 c3         1 3U9      -0.084100
     15 C18         75.1880    25.3330   -65.0750 c3         1 3U9       0.146900
     16 C9          73.7470    27.9400   -62.1380 c3         1 3U9       0.231600
     17 N3          71.8260    26.4470   -57.9990 nb         1 3U9      -0.727000
     18 N23         73.7620    21.2430   -59.3850 nc         1 3U9      -0.354000
     19 N22         73.4910    21.4450   -60.6480 nd         1 3U9      -0.211800
     20 N21         73.1510    22.7370   -60.7910 na         1 3U9       0.118800
     21 N7          71.7490    28.6800   -58.6310 nv         1 3U9      -1.051900
     22 O17         74.6320    26.2400   -64.1240 os         1 3U9      -0.356100
     23 O8          73.1770    28.1740   -60.8350 os         1 3U9      -0.364100
     24 F19         69.2160    26.7140   -63.4820 f          1 3U9      -0.178000
     25 H14         72.7630    24.9330   -65.5900 ha         1 3U9       0.125000
     26 H11         70.3250    25.1730   -65.2610 ha         1 3U9       0.136000
     27 H6          73.8540    25.5530   -61.1550 ha         1 3U9       0.128000
     28 H13         71.0110    27.9530   -62.0890 ha         1 3U9       0.152000
     29 H4          71.8380    24.4370   -57.5400 h4         1 3U9       0.029100
     30 H24         73.7790    22.4860   -57.6510 h4         1 3U9       0.050100
     31 H9          74.6630    27.3600   -62.0170 h1         1 3U9       0.065700
     32 H71N        71.4510    28.8910   -57.6910 hn         1 3U9       0.484000
     33 H72N        72.2240    29.4200   -59.1220 hn         1 3U9       0.484000
     34 H161        74.8020    29.8170   -62.0480 hc         1 3U9       0.052700
     35 H162        74.5410    29.1930   -63.6880 hc         1 3U9       0.052700
     36 H163        73.1910    29.9150   -62.7950 hc         1 3U9       0.052700
     37 H251        72.4240    22.3940   -62.6920 h1         1 3U9       0.062700
     38 H252        71.9720    23.9670   -61.9970 h1         1 3U9       0.062700
     39 H253        73.6230    23.7010   -62.5980 h1         1 3U9       0.062700
     40 H181        76.2660    25.4150   -64.9670 h1         1 3U9       0.046700
     41 H182        74.8740    24.3070   -64.8670 h1         1 3U9       0.046700
     42 H183        74.8980    25.6060   -66.0920 h1         1 3U9       0.046700
     43 C25         72.7710    23.2380   -62.1030 c3         1 3U9       0.065900
@<TRIPOS>BOND
     1     1     2 ar  
     2     1     9 ar  
     3     1    25 1   
     4     2    11 ar  
     5     2    26 1   
     6     3     7 ar  
     7     3    10 ar  
     8     3    27 1   
     9     4     8 ar  
    10     4    11 ar  
    11     4    28 1   
    12     5     7 ar  
    13     5    17 ar  
    14     5    29 1   
    15     6    12 2   
    16     6    18 1   
    17     6    30 1   
    18     7    12 1   
    19     8     9 ar  
    20     8    16 1   
    21     9    22 1   
    22    10    13 ar  
    23    10    23 1   
    24    11    24 1   
    25    12    20 1   
    26    13    17 ar  
    27    13    21 1   
    28    14    16 1   
    29    14    34 1   
    30    14    35 1   
    31    14    36 1   
    32    15    22 1   
    33    15    40 1   
    34    15    41 1   
    35    15    42 1   
    36    16    23 1   
    37    16    31 1   
    38    18    19 2   
    39    19    20 1   
    40    20    43 1   
    41    21    32 1   
    42    21    33 1   
    43    37    43 1   
    44    38    43 1   
    45    39    43 1   
@<TRIPOS>SUBSTRUCTURE
     1 3U9         1 TEMP              0 ****  ****    0 ROOT
