@<TRIPOS>MOLECULE
3U9
   43    45     1     0     0
SMALL
No Charge or Current Charge


@<TRIPOS>ATOM
      1 C14         72.1920    25.5810   -64.8200 ca         1 3U9      -0.177000
      2 C11         70.8190    25.8570   -64.7020 ca         1 3U9      -0.105000
      3 C6          73.1860    25.8040   -60.3180 ca         1 3U9      -0.106000
      4 C13         71.2980    27.5230   -62.9960 ca         1 3U9      -0.090000
      5 C4          72.2520    25.2040   -58.1640 ca         1 3U9       0.385900
      6 C24         73.0180    22.3420   -58.6990 cc         1 3U9       0.194900
      7 C5          72.8610    24.7970   -59.3790 ca         1 3U9      -0.110000
      8 C10         72.6810    27.2470   -63.0950 ca         1 3U9      -0.133300
      9 C15         73.1290    26.2750   -64.0200 ca         1 3U9       0.124100
     10 C1          72.8580    27.1440   -60.0220 ca         1 3U9       0.024100
     11 C12         70.3780    26.8280   -63.7930 ca         1 3U9       0.129000
     12 C20         73.1460    23.3550   -59.6080 cd         1 3U9      -0.110000
     13 C2          72.2310    27.4020   -58.7760 ca         1 3U9       0.596900
     14 C16         73.9820    29.4060   -62.7750 c3         1 3U9      -0.084100
     15 C18         75.0430    25.1150   -65.0770 c3         1 3U9       0.146900
     16 C9          73.6810    28.0060   -62.2120 c3         1 3U9       0.231600
     17 N3          71.9390    26.4860   -57.8610 nb         1 3U9      -0.727000
     18 N23         73.3230    21.1360   -59.2560 nc         1 3U9      -0.354000
     19 N22         73.6140    21.3260   -60.5140 nd         1 3U9      -0.211800
     20 N21         73.5040    22.6710   -60.7670 na         1 3U9       0.118800
     21 N7          71.8700    28.6230   -58.3440 nv         1 3U9      -1.051900
     22 O17         74.4860    26.0280   -64.1140 os         1 3U9      -0.356100
     23 O8          73.1350    28.1970   -60.8900 os         1 3U9      -0.364100
     24 F19         69.0580    27.0970   -63.6840 f          1 3U9      -0.178000
     25 H14         72.5070    24.8260   -65.5350 ha         1 3U9       0.125000
     26 H11         70.0970    25.3240   -65.3160 ha         1 3U9       0.136000
     27 H6          73.7000    25.5620   -61.2370 ha         1 3U9       0.128000
     28 H13         70.9340    28.2720   -62.2980 ha         1 3U9       0.152000
     29 H4          71.9870    24.4740   -57.4010 h4         1 3U9       0.029100
     30 H24         72.7330    22.3940   -57.6560 h4         1 3U9       0.050100
     31 H9          74.6300    27.4580   -62.1450 h1         1 3U9       0.065700
     32 H71N        71.7160    28.6990   -57.3460 hn         1 3U9       0.484000
     33 H72N        72.3020    29.4150   -58.8060 hn         1 3U9       0.484000
     34 H161        74.6990    29.9320   -62.1350 hc         1 3U9       0.052700
     35 H162        74.4140    29.3260   -63.7800 hc         1 3U9       0.052700
     36 H163        73.0660    30.0050   -62.8410 hc         1 3U9       0.052700
     37 H251        73.7360    22.3350   -62.8390 h1         1 3U9       0.062700
     38 H252        72.8340    23.8100   -62.4100 h1         1 3U9       0.062700
     39 H253        74.6180    23.7460   -62.1980 h1         1 3U9       0.062700
     40 H181        76.1360    25.0860   -64.9840 h1         1 3U9       0.046700
     41 H182        74.6630    24.0980   -64.9190 h1         1 3U9       0.046700
     42 H183        74.7980    25.4290   -66.0990 h1         1 3U9       0.046700
     43 C25         73.6840    23.1750   -62.1360 c3         1 3U9       0.065900
@<TRIPOS>BOND
     1     1     2 ar  
     2     1     9 ar  
     3     1    25 1   
     4     2    11 ar  
     5     2    26 1   
     6     3     7 ar  
     7     3    10 ar  
     8     3    27 1   
     9     4     8 ar  
    10     4    11 ar  
    11     4    28 1   
    12     5     7 ar  
    13     5    17 ar  
    14     5    29 1   
    15     6    12 2   
    16     6    18 1   
    17     6    30 1   
    18     7    12 1   
    19     8     9 ar  
    20     8    16 1   
    21     9    22 1   
    22    10    13 ar  
    23    10    23 1   
    24    11    24 1   
    25    12    20 1   
    26    13    17 ar  
    27    13    21 1   
    28    14    16 1   
    29    14    34 1   
    30    14    35 1   
    31    14    36 1   
    32    15    22 1   
    33    15    40 1   
    34    15    41 1   
    35    15    42 1   
    36    16    23 1   
    37    16    31 1   
    38    18    19 2   
    39    19    20 1   
    40    20    43 1   
    41    21    32 1   
    42    21    33 1   
    43    37    43 1   
    44    38    43 1   
    45    39    43 1   
@<TRIPOS>SUBSTRUCTURE
     1 3U9         1 TEMP              0 ****  ****    0 ROOT
