@<TRIPOS>MOLECULE
3UA
   56    58     1     0     0
SMALL
No Charge or Current Charge


@<TRIPOS>ATOM
      1 F58          0.9560    -2.9900     0.7890 f          1 3UA      -0.085000
      2 C11          1.7470    -2.8890    -0.3620 c5         1 3UA       0.105000
      3 F6           1.1050    -3.6330    -1.3540 f          1 3UA      -0.085000
      4 C12          3.1860    -3.4170    -0.0960 c5         1 3UA       0.099000
      5 F7           3.2220    -4.4110     0.8850 f          1 3UA      -0.108000
      6 F57          3.7350    -3.9670    -1.2570 f          1 3UA      -0.108000
      7 C1           1.9920    -1.3980    -0.8160 c5         1 3UA       0.429300
      8 O            3.3880    -1.0950    -0.5150 os         1 3UA      -0.469000
      9 C            3.9730    -2.1350     0.3060 c5         1 3UA       0.097300
     10 C13          4.0710    -1.7080     1.8160 c3         1 3UA       0.196300
     11 O15          2.8180    -1.2270     2.3400 oh         1 3UA      -0.751000
     12 C14          5.1870    -0.6380     2.0410 c3         1 3UA       0.126600
     13 O16          5.4010    -0.3730     3.4410 oh         1 3UA      -0.654000
     14 O1           1.1000    -0.5690    -0.0510 os         1 3UA      -0.571400
     15 P            1.4750     0.9790     0.1050 p5         1 3UA       1.484800
     16 O3           2.0100     1.5360    -1.1720 o          1 3UA      -0.829000
     17 O2           2.3930     1.0800     1.2800 o          1 3UA      -0.829000
     18 O4           0.0030     1.4730     0.3700 os         1 3UA      -0.709800
     19 P1          -0.0010     2.8600     1.1180 p5         1 3UA       1.451800
     20 O6           0.9200     3.8820     0.5400 o          1 3UA      -0.831500
     21 O5           0.1280     2.7330     2.6000 o          1 3UA      -0.831500
     22 O7          -1.5120     3.2670     0.7410 os         1 3UA      -0.579400
     23 C2          -2.5920     2.6480     1.4510 c3         1 3UA       0.231600
     24 C3          -3.8930     2.7740     0.6090 c5         1 3UA       0.155300
     25 O8          -3.7130     2.1390    -0.6920 os         1 3UA      -0.412000
     26 C6          -5.1210     2.0530     1.2700 c5         1 3UA       0.099300
     27 O10         -6.3850     2.5850     0.8540 oh         1 3UA      -0.712000
     28 C5          -4.9400     0.6130     0.7130 c5         1 3UA       0.065300
     29 O9          -6.1500    -0.1600     0.8610 oh         1 3UA      -0.705000
     30 C4          -4.5710     0.9820    -0.7660 c5         1 3UA       0.342700
     31 N           -3.8660    -0.1640    -1.3970 n          1 3UA      -0.316000
     32 C10         -4.5340    -0.8800    -2.4090 c          1 3UA       0.622000
     33 O12         -5.6340    -0.5740    -2.8380 o          1 3UA      -0.592000
     34 C7          -2.6080    -0.5640    -0.9330 cc         1 3UA       0.012600
     35 C8          -2.0270    -1.6850    -1.4770 cd         1 3UA      -0.379200
     36 C9          -2.6740    -2.4640    -2.5310 c          1 3UA       0.586200
     37 N1          -3.8840    -1.9700    -2.9000 ns         1 3UA      -0.476500
     38 O11         -2.1900    -3.4580    -3.0410 o          1 3UA      -0.551000
     39 H1           1.8100    -1.2650    -1.8910 h2         1 3UA       0.086700
     40 H2           5.0120    -2.2610    -0.0290 h1         1 3UA       0.065700
     41 H3           4.3760    -2.6020     2.3760 h1         1 3UA       0.041700
     42 H4           2.6910    -0.3080     1.9290 ho         1 3UA       0.597000
     43 H5           6.1190    -1.0050     1.5910 h1         1 3UA       0.032700
     44 H6           4.9170     0.2860     1.5130 h1         1 3UA       0.032700
     45 H7           6.0500     0.3630     3.5000 ho         1 3UA       0.428000
     46 H10         -2.3810     1.5890     1.6480 h1         1 3UA       0.015700
     47 H11         -2.7450     3.1470     2.4170 h1         1 3UA       0.015700
     48 H12         -4.0980     3.8430     0.4620 h1         1 3UA       0.097700
     49 H13         -5.0500     2.0650     2.3670 h1         1 3UA       0.051700
     50 H14         -6.9790     1.7930     0.8410 ho         1 3UA       0.502000
     51 H15         -4.1040     0.1120     1.2210 h1         1 3UA       0.067700
     52 H16         -5.9410    -1.0940     0.6220 ho         1 3UA       0.499000
     53 H17         -5.4700     1.2280    -1.3460 h2         1 3UA       0.101700
     54 H18         -2.1720     0.0810    -0.1710 h4         1 3UA       0.268000
     55 H19         -1.0570    -2.0470    -1.1630 ha         1 3UA       0.258000
     56 H20         -4.3650    -2.4770    -3.6240 hn         1 3UA       0.317500
@<TRIPOS>BOND
     1     1     2 1   
     2     2     3 1   
     3     2     4 1   
     4     2     7 1   
     5     4     5 1   
     6     4     6 1   
     7     4     9 1   
     8     7     8 1   
     9     7    14 1   
    10     7    39 1   
    11     8     9 1   
    12     9    10 1   
    13     9    40 1   
    14    10    11 1   
    15    10    12 1   
    16    10    41 1   
    17    11    42 1   
    18    12    13 1   
    19    12    43 1   
    20    12    44 1   
    21    13    45 1   
    22    14    15 1   
    23    15    16 1   
    24    15    17 1   
    25    15    18 1   
    26    18    19 1   
    27    19    20 1   
    28    19    21 1   
    29    19    22 1   
    30    22    23 1   
    31    23    24 1   
    32    23    46 1   
    33    23    47 1   
    34    24    25 1   
    35    24    26 1   
    36    24    48 1   
    37    25    30 1   
    38    26    27 1   
    39    26    28 1   
    40    26    49 1   
    41    27    50 1   
    42    28    29 1   
    43    28    30 1   
    44    28    51 1   
    45    29    52 1   
    46    30    31 1   
    47    30    53 1   
    48    31    32 1   
    49    31    34 1   
    50    32    33 2   
    51    32    37 1   
    52    34    35 2   
    53    34    54 1   
    54    35    36 1   
    55    35    55 1   
    56    36    37 1   
    57    36    38 2   
    58    37    56 1   
@<TRIPOS>SUBSTRUCTURE
     1 3UA         1 TEMP              0 ****  ****    0 ROOT
