@<TRIPOS>MOLECULE
3UA
   56    58     1     0     0
SMALL
bcc


@<TRIPOS>ATOM
      1 F58          1.1840    -3.2200     0.7440 f          1 3UA      -0.206300
      2 C11          1.8070    -2.8800    -0.3950 c5         1 3UA       0.347600
      3 F6           1.1440    -3.4810    -1.4050 f          1 3UA      -0.206300
      4 C12          3.2860    -3.3320    -0.3460 c5         1 3UA       0.341600
      5 F7           3.4930    -4.2790     0.5870 f          1 3UA      -0.229300
      6 F57          3.6110    -3.8810    -1.5420 f          1 3UA      -0.229300
      7 C1           1.8730    -1.3510    -0.6060 c5         1 3UA       0.382900
      8 O            3.2380    -1.0400    -0.6600 os         1 3UA      -0.422600
      9 C            4.0850    -2.0490    -0.1290 c5         1 3UA       0.074100
     10 C13          4.5350    -1.7740     1.3080 c3         1 3UA       0.173100
     11 O15          3.4750    -1.6300     2.2000 oh         1 3UA      -0.628800
     12 C14          5.4970    -0.5910     1.3140 c3         1 3UA       0.103400
     13 O16          6.0380    -0.4720     2.6090 oh         1 3UA      -0.591800
     14 O1           1.1880    -0.7400     0.4210 os         1 3UA      -0.548200
     15 P            1.4670     0.8580     0.7840 p5         1 3UA       1.484800
     16 O3           1.6600     1.6330    -0.4720 o          1 3UA      -0.829000
     17 O2           2.4990     0.8660     1.8830 o          1 3UA      -0.829000
     18 O4          -0.0120     1.0870     1.4310 os         1 3UA      -0.709800
     19 P1          -0.4450     2.4740     2.2300 p5         1 3UA       1.451800
     20 O6           0.6150     3.5050     2.0300 o          1 3UA      -0.831500
     21 O5          -0.9320     2.0650     3.5820 o          1 3UA      -0.831500
     22 O7          -1.7140     2.9300     1.2980 os         1 3UA      -0.556200
     23 C2          -3.0240     2.5230     1.6170 c3         1 3UA       0.208400
     24 C3          -3.9100     2.7960     0.4180 c5         1 3UA       0.132100
     25 O8          -3.4730     2.0480    -0.7260 os         1 3UA      -0.365600
     26 C6          -5.3510     2.3710     0.6610 c5         1 3UA       0.076100
     27 O10         -6.1960     3.1440    -0.1510 oh         1 3UA      -0.589800
     28 C5          -5.3060     0.9200     0.1810 c5         1 3UA       0.042100
     29 O9          -6.5360     0.3790    -0.1930 oh         1 3UA      -0.582800
     30 C4          -4.3900     1.0430    -1.0380 c5         1 3UA       0.319500
     31 N           -3.6780    -0.1970    -1.3370 n          1 3UA      -0.383000
     32 C10         -4.1770    -1.0190    -2.3290 c          1 3UA       0.831500
     33 O12         -5.1090    -0.7140    -3.0430 o          1 3UA      -0.667500
     34 C7          -2.6120    -0.5830    -0.5740 cc         1 3UA       0.062600
     35 C8          -2.0070    -1.7740    -0.7030 cd         1 3UA      -0.329200
     36 C9          -2.4820    -2.7130    -1.6900 c          1 3UA       0.728700
     37 N1          -3.5340    -2.2230    -2.4490 ns         1 3UA      -0.610500
     38 O11         -2.0440    -3.8300    -1.8890 o          1 3UA      -0.626500
     39 H1           1.4440    -1.0810    -1.5770 h2         1 3UA       0.086700
     40 H2           4.9770    -2.0900    -0.7610 h1         1 3UA       0.065700
     41 H3           5.1150    -2.6530     1.6170 h1         1 3UA       0.041700
     42 H4           3.1250    -0.7100     2.1400 ho         1 3UA       0.498000
     43 H5           6.2820    -0.7730     0.5670 h1         1 3UA       0.032700
     44 H6           4.9680     0.3200     1.0140 h1         1 3UA       0.032700
     45 H7           6.5380     0.3480     2.6480 ho         1 3UA       0.389000
     46 H10         -3.0740     1.4620     1.8930 h1         1 3UA       0.015700
     47 H11         -3.4140     3.0880     2.4700 h1         1 3UA       0.015700
     48 H12         -3.8540     3.8600     0.1680 h1         1 3UA       0.097700
     49 H13         -5.6270     2.4450     1.7220 h1         1 3UA       0.051700
     50 H14         -7.0290     2.6690    -0.2480 ho         1 3UA       0.403000
     51 H15         -4.8110     0.3070     0.9470 h1         1 3UA       0.067700
     52 H16         -6.9830     0.0500     0.5940 ho         1 3UA       0.400000
     53 H17         -4.9670     1.2960    -1.9300 h2         1 3UA       0.101700
     54 H18         -2.2480     0.1410     0.1410 h4         1 3UA       0.218000
     55 H19         -1.1690    -2.0280    -0.0760 ha         1 3UA       0.208000
     56 H20         -3.9060    -2.8360    -3.1630 hn         1 3UA       0.317500
@<TRIPOS>BOND
     1     1     2 1   
     2     2     3 1   
     3     2     4 1   
     4     2     7 1   
     5     4     5 1   
     6     4     6 1   
     7     4     9 1   
     8     7     8 1   
     9     7    14 1   
    10     7    39 1   
    11     8     9 1   
    12     9    10 1   
    13     9    40 1   
    14    10    11 1   
    15    10    12 1   
    16    10    41 1   
    17    11    42 1   
    18    12    13 1   
    19    12    43 1   
    20    12    44 1   
    21    13    45 1   
    22    14    15 1   
    23    15    16 1   
    24    15    17 1   
    25    15    18 1   
    26    18    19 1   
    27    19    20 1   
    28    19    21 1   
    29    19    22 1   
    30    22    23 1   
    31    23    24 1   
    32    23    46 1   
    33    23    47 1   
    34    24    25 1   
    35    24    26 1   
    36    24    48 1   
    37    25    30 1   
    38    26    27 1   
    39    26    28 1   
    40    26    49 1   
    41    27    50 1   
    42    28    29 1   
    43    28    30 1   
    44    28    51 1   
    45    29    52 1   
    46    30    31 1   
    47    30    53 1   
    48    31    32 1   
    49    31    34 1   
    50    32    33 2   
    51    32    37 1   
    52    34    35 2   
    53    34    54 1   
    54    35    36 1   
    55    35    55 1   
    56    36    37 1   
    57    36    38 2   
    58    37    56 1   
@<TRIPOS>SUBSTRUCTURE
     1 3UA         1 TEMP              0 ****  ****    0 ROOT
