@<TRIPOS>MOLECULE
3UB
   39    39     1     0     0
SMALL
No Charge or Current Charge


@<TRIPOS>ATOM
      1 O2P         -2.3580    -1.8230    -0.3880 o          1 3UB      -0.814500
      2 P           -2.7280    -0.3830    -0.5520 p5         1 3UB       1.385400
      3 C1          -5.3030    -0.8020     0.0440 c3         1 3UB       0.246300
      4 C2          -6.3280    -0.2510     1.0530 c3         1 3UB      -0.103600
      5 C3          -5.7990    -0.6970    -1.4170 c3         1 3UB      -0.103600
      6 C4          -1.5540     0.6930     0.4410 c3         1 3UB      -0.220300
      7 C5          -1.8910     2.2010     0.3630 c3         1 3UB      -0.070100
      8 C7           3.2880     0.4140     1.2540 c3         1 3UB       0.231900
      9 NC          -0.1040     0.4650     0.1670 ns         1 3UB      -0.462900
     10 O1C          0.7750     0.9450     2.2430 o          1 3UB      -0.553000
     11 O1P         -4.1030    -0.0380     0.2260 os         1 3UB      -0.615400
     12 O2C          2.0920     0.3200     0.4640 os         1 3UB      -0.471100
     13 O3P         -2.7490     0.0530    -1.9820 o          1 3UB      -0.814500
     14 C71          4.4780     0.0480     0.3760 ca         1 3UB      -0.082300
     15 C72          5.1490     1.0430    -0.3620 ca         1 3UB      -0.086000
     16 C73          6.2490     0.7060    -1.1710 ca         1 3UB      -0.122000
     17 C74          6.6830    -0.6280    -1.2480 ca         1 3UB      -0.114000
     18 C75          6.0160    -1.6250    -0.5170 ca         1 3UB      -0.122000
     19 C76          4.9170    -1.2890     0.2930 ca         1 3UB      -0.086000
     20 H1          -5.1240    -1.8600     0.2810 h1         1 3UB       0.033700
     21 H2          -7.2670    -0.8140     0.9930 hc         1 3UB       0.028033
     22 H2A         -5.9450    -0.3380     2.0770 hc         1 3UB       0.028033
     23 H2B         -6.5460     0.8050     0.8520 hc         1 3UB       0.028033
     24 H3          -5.8450     0.3490    -1.7420 hc         1 3UB       0.028033
     25 H3A         -5.1470    -1.2540    -2.0990 hc         1 3UB       0.028033
     26 H3B         -6.8040    -1.1250    -1.5080 hc         1 3UB       0.028033
     27 H4          -1.7580     0.3540     1.4640 h1         1 3UB       0.084700
     28 H5          -1.7410     2.5810    -0.6550 hc         1 3UB       0.026367
     29 H5A         -2.9330     2.3840     0.6480 hc         1 3UB       0.026367
     30 H5B         -1.2510     2.7780     1.0420 hc         1 3UB       0.026367
     31 H7           3.4200     1.4330     1.6430 h1         1 3UB       0.051200
     32 H7A          3.2420    -0.2710     2.1120 h1         1 3UB       0.051200
     33 HNC          0.1840     0.1680    -0.7590 hn         1 3UB       0.318500
     34 H72          4.8180     2.0780    -0.3100 ha         1 3UB       0.119000
     35 H73          6.7630     1.4780    -1.7390 ha         1 3UB       0.104500
     36 H74          7.5330    -0.8890    -1.8750 ha         1 3UB       0.101000
     37 H75          6.3500    -2.6590    -0.5770 ha         1 3UB       0.104500
     38 H76          4.4040    -2.0670     0.8540 ha         1 3UB       0.119000
     39 C6           0.9120     0.6130     1.0750 c          1 3UB       0.640100
@<TRIPOS>BOND
     1     1     2 1   
     2     2     6 1   
     3     2    11 1   
     4     2    13 1   
     5     3     4 1   
     6     3     5 1   
     7     3    11 1   
     8     3    20 1   
     9     4    21 1   
    10     4    22 1   
    11     4    23 1   
    12     5    24 1   
    13     5    25 1   
    14     5    26 1   
    15     6     7 1   
    16     6     9 1   
    17     6    27 1   
    18     7    28 1   
    19     7    29 1   
    20     7    30 1   
    21     8    12 1   
    22     8    14 1   
    23     8    31 1   
    24     8    32 1   
    25     9    33 1   
    26     9    39 1   
    27    10    39 2   
    28    12    39 1   
    29    14    15 ar  
    30    14    19 ar  
    31    15    16 ar  
    32    15    34 1   
    33    16    17 ar  
    34    16    35 1   
    35    17    18 ar  
    36    17    36 1   
    37    18    19 ar  
    38    18    37 1   
    39    19    38 1   
@<TRIPOS>SUBSTRUCTURE
     1 3UB         1 TEMP              0 ****  ****    0 ROOT
