@<TRIPOS>MOLECULE
3UB
   39    39     1     0     0
SMALL
abcg2


@<TRIPOS>ATOM
      1 O2P         -1.6840    -1.4740     1.1610 o          1 3UB      -0.814500
      2 P           -2.3280    -0.5860     0.1310 p5         1 3UB       1.385400
      3 C1          -5.0030    -0.7930     0.1050 c3         1 3UB       0.246300
      4 C2          -6.0230    -0.9250     1.2220 c3         1 3UB      -0.103600
      5 C3          -5.5400     0.0240    -1.0580 c3         1 3UB      -0.103600
      6 C4          -1.5490     1.0870     0.2170 c3         1 3UB      -0.220300
      7 C5          -2.1550     2.0870    -0.7540 c3         1 3UB      -0.070100
      8 C7           3.0610     0.2250     1.2880 c3         1 3UB       0.231900
      9 NC          -0.1310     0.9260    -0.0510 ns         1 3UB      -0.462900
     10 O1C          0.6120     0.9250     2.1050 o          1 3UB      -0.553000
     11 O1P         -3.8400    -0.1740     0.6500 os         1 3UB      -0.615400
     12 O2C          1.9650     0.3910     0.3850 os         1 3UB      -0.471100
     13 O3P         -2.3750    -1.0420    -1.3060 o          1 3UB      -0.814500
     14 C71          4.2730    -0.0610     0.4530 ca         1 3UB      -0.082300
     15 C72          5.1870     0.9470     0.1650 ca         1 3UB      -0.086000
     16 C73          6.2970     0.6900    -0.6280 ca         1 3UB      -0.122000
     17 C74          6.5010    -0.5820    -1.1460 ca         1 3UB      -0.114000
     18 C75          5.5910    -1.5950    -0.8650 ca         1 3UB      -0.122000
     19 C76          4.4850    -1.3350    -0.0690 ca         1 3UB      -0.086000
     20 H1          -4.7590    -1.7980    -0.2600 h1         1 3UB       0.033700
     21 H2          -6.9250    -1.4180     0.8570 hc         1 3UB       0.028033
     22 H2A         -5.6320    -1.5180     2.0490 hc         1 3UB       0.028033
     23 H2B         -6.3110     0.0550     1.6090 hc         1 3UB       0.028033
     24 H3          -5.8000     1.0340    -0.7340 hc         1 3UB       0.028033
     25 H3A         -4.8000     0.0960    -1.8540 hc         1 3UB       0.028033
     26 H3B         -6.4400    -0.4390    -1.4680 hc         1 3UB       0.028033
     27 H4          -1.6510     1.4650     1.2350 h1         1 3UB       0.084700
     28 H5          -2.0530     1.7460    -1.7850 hc         1 3UB       0.026367
     29 H5A         -3.2180     2.2190    -0.5550 hc         1 3UB       0.026367
     30 H5B         -1.6690     3.0590    -0.6650 hc         1 3UB       0.026367
     31 H7           3.2080     1.1300     1.8810 h1         1 3UB       0.051200
     32 H7A          2.8590    -0.6000     1.9750 h1         1 3UB       0.051200
     33 HNC          0.1240     0.6580    -0.9900 hn         1 3UB       0.318500
     34 H72          5.0320     1.9420     0.5670 ha         1 3UB       0.119000
     35 H73          7.0020     1.4830    -0.8420 ha         1 3UB       0.104500
     36 H74          7.3660    -0.7850    -1.7640 ha         1 3UB       0.101000
     37 H75          5.7470    -2.5890    -1.2640 ha         1 3UB       0.104500
     38 H76          3.7830    -2.1300     0.1520 ha         1 3UB       0.119000
     39 C6           0.7860     0.7510     0.9160 c          1 3UB       0.640100
@<TRIPOS>BOND
     1     1     2 1   
     2     2     6 1   
     3     2    11 1   
     4     2    13 1   
     5     3     4 1   
     6     3     5 1   
     7     3    11 1   
     8     3    20 1   
     9     4    21 1   
    10     4    22 1   
    11     4    23 1   
    12     5    24 1   
    13     5    25 1   
    14     5    26 1   
    15     6     7 1   
    16     6     9 1   
    17     6    27 1   
    18     7    28 1   
    19     7    29 1   
    20     7    30 1   
    21     8    12 1   
    22     8    14 1   
    23     8    31 1   
    24     8    32 1   
    25     9    33 1   
    26     9    39 1   
    27    10    39 2   
    28    12    39 1   
    29    14    15 ar  
    30    14    19 ar  
    31    15    16 ar  
    32    15    34 1   
    33    16    17 ar  
    34    16    35 1   
    35    17    18 ar  
    36    17    36 1   
    37    18    19 ar  
    38    18    37 1   
    39    19    38 1   
@<TRIPOS>SUBSTRUCTURE
     1 3UB         1 TEMP              0 ****  ****    0 ROOT
