@<TRIPOS>MOLECULE
3UC
   56    58     1     0     0
SMALL
No Charge or Current Charge


@<TRIPOS>ATOM
      1 F2'         -2.5050     1.0880    -2.1110 f          1 3UC      -0.102000
      2 C2          -1.9200     0.3360    -1.0710 c6         1 3UC       0.105000
      3 F2          -1.2680    -0.7300    -1.7180 f          1 3UC      -0.102000
      4 C3          -0.8890     1.2300    -0.3170 c6         1 3UC       0.103000
      5 F3'          0.0390     1.7740    -1.2280 f          1 3UC      -0.104000
      6 F3          -0.1430     0.4400     0.5770 f          1 3UC      -0.104000
      7 C4          -1.5660     2.3740     0.5000 c6         1 3UC       0.096300
      8 O4          -2.0740     3.4090    -0.3730 oh         1 3UC      -0.695000
      9 C5          -2.7000     1.7410     1.3790 c6         1 3UC       0.180300
     10 C6          -3.4830     2.8110     2.2110 c3         1 3UC       0.174600
     11 O6          -4.4860     2.2410     3.0710 oh         1 3UC      -0.670000
     12 O5          -3.6480     0.9970     0.5570 os         1 3UC      -0.447000
     13 C1          -3.0810    -0.1500    -0.1260 c6         1 3UC       0.428300
     14 O3B         -2.7270    -1.1040     0.8880 os         1 3UC      -0.565400
     15 PB          -2.4920    -2.6460     0.4930 p5         1 3UC       1.459800
     16 O1B         -2.9480    -3.4960     1.6320 o          1 3UC      -0.837500
     17 O2B         -3.2150    -2.9590    -0.7750 o          1 3UC      -0.837500
     18 O3A         -0.9270    -2.5810     0.3300 os         1 3UC      -0.687800
     19 PA          -0.2490    -4.0030     0.3640 p5         1 3UC       1.464800
     20 O1A          0.0330    -4.4930     1.7470 o          1 3UC      -0.847500
     21 O2A         -0.9220    -5.0330    -0.4820 o          1 3UC      -0.847500
     22 O5D          1.1290    -3.5750    -0.3520 os         1 3UC      -0.569400
     23 C5D          2.1240    -2.8840     0.4160 c3         1 3UC       0.234600
     24 C4D          2.9770    -2.0110    -0.5400 c5         1 3UC       0.169300
     25 C3D          4.3610    -1.5650     0.0320 c5         1 3UC       0.087300
     26 O3D          5.3700    -2.6000     0.0090 oh         1 3UC      -0.711000
     27 C2D          4.7330    -0.4180    -0.9610 c5         1 3UC       0.096300
     28 O2D          5.4440    -1.0050    -2.0590 oh         1 3UC      -0.732000
     29 O4D          2.3270    -0.7480    -0.7770 os         1 3UC      -0.396000
     30 C1D          3.3080     0.1290    -1.3590 c5         1 3UC       0.332700
     31 N1           3.1880     1.5370    -0.8870 n          1 3UC      -0.308000
     32 C10          3.2780     2.5620    -1.8300 cc         1 3UC       0.034600
     33 C9           3.0640     3.8610    -1.4330 cd         1 3UC      -0.410200
     34 C8           2.7470     4.2050    -0.0490 c          1 3UC       0.599200
     35 O7           2.5430     5.3390     0.3430 o          1 3UC      -0.561000
     36 N3           2.7050     3.1300     0.7760 ns         1 3UC      -0.469500
     37 C7           2.9100     1.8200     0.4710 c          1 3UC       0.623000
     38 O2           2.8780     0.9850     1.3580 o          1 3UC      -0.540000
     39 H1          -0.8120     2.8060     1.1750 h1         1 3UC       0.043700
     40 H2          -1.3390     3.6680    -0.9740 ho         1 3UC       0.493000
     41 H3          -2.2400     1.0530     2.1050 h1         1 3UC       0.113700
     42 H4          -2.7570     3.3730     2.8130 h1         1 3UC       0.009200
     43 H5          -3.9530     3.5210     1.5180 h1         1 3UC       0.009200
     44 H6          -4.9760     2.9930     3.4750 ho         1 3UC       0.478000
     45 H7          -3.8690    -0.5840    -0.7610 h2         1 3UC       0.104700
     46 H10          1.6750    -2.2440     1.1870 h1         1 3UC       0.027200
     47 H11          2.7770    -3.6120     0.9140 h1         1 3UC       0.027200
     48 H12          3.1010    -2.5390    -1.4960 h1         1 3UC       0.074700
     49 H13          4.2400    -1.1630     1.0480 h1         1 3UC       0.083700
     50 H14          5.3530    -3.0600     0.8830 ho         1 3UC       0.498000
     51 H15          5.3500     0.3480    -0.4700 h1         1 3UC       0.051700
     52 H16          5.7670    -1.8550    -1.6530 ho         1 3UC       0.524000
     53 H17          3.1920     0.1360    -2.4500 h2         1 3UC       0.068700
     54 H18          3.5120     2.2290    -2.8390 h4         1 3UC       0.204000
     55 H19          3.1140     4.6960    -2.1220 ha         1 3UC       0.210000
     56 H20          2.5090     3.3270     1.7440 hn         1 3UC       0.336500
@<TRIPOS>BOND
     1     1     2 1   
     2     2     3 1   
     3     2     4 1   
     4     2    13 1   
     5     4     5 1   
     6     4     6 1   
     7     4     7 1   
     8     7     8 1   
     9     7     9 1   
    10     7    39 1   
    11     8    40 1   
    12     9    10 1   
    13     9    12 1   
    14     9    41 1   
    15    10    11 1   
    16    10    42 1   
    17    10    43 1   
    18    11    44 1   
    19    12    13 1   
    20    13    14 1   
    21    13    45 1   
    22    14    15 1   
    23    15    16 1   
    24    15    17 1   
    25    15    18 1   
    26    18    19 1   
    27    19    20 1   
    28    19    21 1   
    29    19    22 1   
    30    22    23 1   
    31    23    24 1   
    32    23    46 1   
    33    23    47 1   
    34    24    25 1   
    35    24    29 1   
    36    24    48 1   
    37    25    26 1   
    38    25    27 1   
    39    25    49 1   
    40    26    50 1   
    41    27    28 1   
    42    27    30 1   
    43    27    51 1   
    44    28    52 1   
    45    29    30 1   
    46    30    31 1   
    47    30    53 1   
    48    31    32 1   
    49    31    37 1   
    50    32    33 2   
    51    32    54 1   
    52    33    34 1   
    53    33    55 1   
    54    34    35 2   
    55    34    36 1   
    56    36    37 1   
    57    36    56 1   
    58    37    38 2   
@<TRIPOS>SUBSTRUCTURE
     1 3UC         1 TEMP              0 ****  ****    0 ROOT
