@<TRIPOS>MOLECULE
3UC
   56    58     1     0     0
SMALL
abcg2


@<TRIPOS>ATOM
      1 F2'         -5.1200     1.1810    -1.9810 f          1 3UC      -0.102000
      2 C2          -3.8860     0.9240    -1.4820 c6         1 3UC       0.105000
      3 F2          -3.1450     0.4350    -2.5010 f          1 3UC      -0.102000
      4 C3          -3.2870     2.2430    -0.9820 c6         1 3UC       0.103000
      5 F3'         -3.3920     3.1840    -1.9540 f          1 3UC      -0.104000
      6 F3          -1.9620     2.0550    -0.7650 f          1 3UC      -0.104000
      7 C4          -3.9460     2.7320     0.3100 c6         1 3UC       0.096300
      8 O4          -5.2410     3.1930     0.0660 oh         1 3UC      -0.695000
      9 C5          -4.0070     1.5720     1.3020 c6         1 3UC       0.180300
     10 C6          -4.7510     1.9590     2.5630 c3         1 3UC       0.174600
     11 O6          -4.5520     0.9490     3.5220 oh         1 3UC      -0.670000
     12 O5          -4.6690     0.4580     0.7210 os         1 3UC      -0.447000
     13 C1          -4.0180    -0.1210    -0.3640 c6         1 3UC       0.428300
     14 O3B         -2.7530    -0.5750    -0.0550 os         1 3UC      -0.565400
     15 PB          -2.4940    -2.2060     0.1750 p5         1 3UC       1.459800
     16 O1B         -2.8800    -2.5860     1.5650 o          1 3UC      -0.837500
     17 O2B         -3.0540    -2.9330    -1.0050 o          1 3UC      -0.837500
     18 O3A         -0.8750    -2.0690     0.0290 os         1 3UC      -0.687800
     19 PA           0.2180    -2.8710     0.9650 p5         1 3UC       1.464800
     20 O1A          0.3960    -2.1860     2.2820 o          1 3UC      -0.847500
     21 O2A         -0.0460    -4.3410     0.8910 o          1 3UC      -0.847500
     22 O5D          1.4800    -2.4870    -0.0210 os         1 3UC      -0.569400
     23 C5D          2.7780    -2.4590     0.5290 c3         1 3UC       0.234600
     24 C4D          3.7650    -2.0880    -0.5490 c5         1 3UC       0.169300
     25 C3D          5.2090    -2.0940    -0.0480 c5         1 3UC       0.087300
     26 O3D          5.7770    -3.3650    -0.2380 oh         1 3UC      -0.711000
     27 C2D          5.8790    -1.0100    -0.9150 c5         1 3UC       0.096300
     28 O2D          6.4280    -1.5780    -2.0750 oh         1 3UC      -0.732000
     29 O4D          3.5150    -0.7640    -0.9910 os         1 3UC      -0.396000
     30 C1D          4.7010    -0.1200    -1.3510 c5         1 3UC       0.332700
     31 N1           4.6870     1.2410    -0.8280 n          1 3UC      -0.308000
     32 C10          4.5930     2.2910    -1.6980 cc         1 3UC       0.034600
     33 C9           4.5220     3.5730    -1.3100 cd         1 3UC      -0.410200
     34 C8           4.5300     3.8910     0.0960 c          1 3UC       0.599200
     35 O7           4.4700     5.0050     0.5810 o          1 3UC      -0.561000
     36 N3           4.6140     2.7710     0.9100 ns         1 3UC      -0.469500
     37 C7           4.6910     1.4560     0.5350 c          1 3UC       0.623000
     38 O2           4.7630     0.5590     1.3470 o          1 3UC      -0.540000
     39 H1          -3.2990     3.5140     0.7320 h1         1 3UC       0.043700
     40 H2          -5.1990     4.0460    -0.3770 ho         1 3UC       0.493000
     41 H3          -2.9810     1.3080     1.5840 h1         1 3UC       0.113700
     42 H4          -4.3570     2.9260     2.9030 h1         1 3UC       0.009200
     43 H5          -5.8140     2.1050     2.3390 h1         1 3UC       0.009200
     44 H6          -5.0750     1.1730     4.2970 ho         1 3UC       0.478000
     45 H7          -4.6760    -0.9210    -0.7240 h2         1 3UC       0.104700
     46 H10          2.8480    -1.7350     1.3470 h1         1 3UC       0.027200
     47 H11          3.0700    -3.4390     0.9270 h1         1 3UC       0.027200
     48 H12          3.6770    -2.7870    -1.3920 h1         1 3UC       0.074700
     49 H13          5.2490    -1.8000     1.0020 h1         1 3UC       0.083700
     50 H14          6.4660    -3.4980     0.4190 ho         1 3UC       0.498000
     51 H15          6.6360    -0.4460    -0.3590 h1         1 3UC       0.051700
     52 H16          6.6590    -2.4920    -1.8570 ho         1 3UC       0.524000
     53 H17          4.7610     0.0030    -2.4360 h2         1 3UC       0.068700
     54 H18          4.5820     2.0250    -2.7450 h4         1 3UC       0.204000
     55 H19          4.4540     4.3650    -2.0390 ha         1 3UC       0.210000
     56 H20          4.6210     2.9320     1.9100 hn         1 3UC       0.336500
@<TRIPOS>BOND
     1     1     2 1   
     2     2     3 1   
     3     2     4 1   
     4     2    13 1   
     5     4     5 1   
     6     4     6 1   
     7     4     7 1   
     8     7     8 1   
     9     7     9 1   
    10     7    39 1   
    11     8    40 1   
    12     9    10 1   
    13     9    12 1   
    14     9    41 1   
    15    10    11 1   
    16    10    42 1   
    17    10    43 1   
    18    11    44 1   
    19    12    13 1   
    20    13    14 1   
    21    13    45 1   
    22    14    15 1   
    23    15    16 1   
    24    15    17 1   
    25    15    18 1   
    26    18    19 1   
    27    19    20 1   
    28    19    21 1   
    29    19    22 1   
    30    22    23 1   
    31    23    24 1   
    32    23    46 1   
    33    23    47 1   
    34    24    25 1   
    35    24    29 1   
    36    24    48 1   
    37    25    26 1   
    38    25    27 1   
    39    25    49 1   
    40    26    50 1   
    41    27    28 1   
    42    27    30 1   
    43    27    51 1   
    44    28    52 1   
    45    29    30 1   
    46    30    31 1   
    47    30    53 1   
    48    31    32 1   
    49    31    37 1   
    50    32    33 2   
    51    32    54 1   
    52    33    34 1   
    53    33    55 1   
    54    34    35 2   
    55    34    36 1   
    56    36    37 1   
    57    36    56 1   
    58    37    38 2   
@<TRIPOS>SUBSTRUCTURE
     1 3UC         1 TEMP              0 ****  ****    0 ROOT
