@<TRIPOS>MOLECULE
3UD
   90    94     1     0     0
SMALL
abcg2


@<TRIPOS>ATOM
      1 C34          4.4760     3.6180    -1.4860 c3         1 3UD       0.149900
      2 O5           5.4710     2.6180    -1.4760 os         1 3UD      -0.290100
      3 C31          5.3530     1.5860    -0.6210 ca         1 3UD       0.174100
      4 C32          4.2460     1.4430     0.2090 ca         1 3UD      -0.291000
      5 C30          6.4090     0.6580    -0.5530 ca         1 3UD      -0.164600
      6 C33          7.6510     0.7010    -1.4350 c          1 3UD       0.721600
      7 O7           8.6840     0.2070    -0.9400 o          1 3UD      -0.715500
      8 O6           7.5330     1.1840    -2.5750 o          1 3UD      -0.715500
      9 C29          6.2850    -0.3690     0.3730 ca         1 3UD      -0.052000
     10 C28          5.1770    -0.5460     1.1910 ca         1 3UD      -0.178000
     11 C27          4.1410     0.3740     1.1020 ca         1 3UD      -0.026000
     12 N2           2.9620     0.3210     1.8490 ns         1 3UD      -0.135000
     13 C20          2.5880    -0.5180     2.8520 c          1 3UD       0.610100
     14 O2           3.3190    -1.3530     3.3490 o          1 3UD      -0.577100
     15 C19          1.1540    -0.3010     3.2940 c3         1 3UD      -0.160400
     16 C18          0.1360    -1.2820     2.6510 c6         1 3UD      -0.098000
     17 C5          -1.2860    -0.7620     2.8580 c6         1 3UD      -0.074400
     18 C26          0.2570    -2.6520     3.3210 c3         1 3UD      -0.080100
     19 C17          0.4550    -1.4430     1.1660 c          1 3UD       0.572000
     20 O1           1.3330    -2.2230     0.8300 o          1 3UD      -0.534000
     21 N1          -0.2140    -0.7080     0.2430 n          1 3UD      -0.413800
     22 C11         -0.0420    -1.0550    -1.1770 c3         1 3UD       0.180700
     23 C12          1.3210    -0.7100    -1.7340 cx         1 3UD      -0.134700
     24 C35          1.4640    -0.5750    -3.2210 cx         1 3UD      -0.126900
     25 C36          1.5700     0.6340    -2.3470 cx         1 3UD      -0.126900
     26 C13         -0.3740    -2.5200    -1.4990 c3         1 3UD      -0.290400
     27 S1          -2.0370    -2.9700    -0.9810 s6         1 3UD       1.019000
     28 O3          -2.0450    -3.1520     0.4760 o          1 3UD      -0.532500
     29 O4          -2.9670    -1.9780    -1.5380 o          1 3UD      -0.532500
     30 C14         -2.3970    -4.5900    -1.7550 c3         1 3UD      -0.209000
     31 C16         -2.4500    -4.4230    -3.2690 c3         1 3UD      -0.085100
     32 C37         -1.3180    -5.5820    -1.3390 c3         1 3UD      -0.085100
     33 C15         -3.7640    -5.0030    -1.2120 c3         1 3UD      -0.085100
     34 C2          -1.3480     0.1800     0.5180 c6         1 3UD       0.169000
     35 C1          -1.1990     1.4890    -0.2280 ca         1 3UD      -0.072300
     36 C25         -0.1460     2.3500     0.0560 ca         1 3UD      -0.124000
     37 C24         -0.0210     3.5330    -0.6350 ca         1 3UD       0.176000
     38 F1           1.0040     4.3460    -0.3700 f          1 3UD      -0.158000
     39 C23         -0.9330     3.8930    -1.6160 ca         1 3UD       0.071000
     40 CL2         -0.7290     5.3800    -2.4590 cl         1 3UD      -0.173000
     41 C22         -1.9910     3.0460    -1.8970 ca         1 3UD      -0.083000
     42 C21         -2.1170     1.8490    -1.2040 ca         1 3UD      -0.107000
     43 C3          -1.5720     0.4630     2.0070 c6         1 3UD      -0.019400
     44 C4          -2.9720     0.9890     2.2080 ca         1 3UD      -0.070300
     45 C10         -4.0750     0.1830     1.9330 ca         1 3UD      -0.094000
     46 C9          -5.3520     0.6820     2.1190 ca         1 3UD       0.120000
     47 CL1         -6.7140    -0.3350     1.7700 cl         1 3UD      -0.211000
     48 C8          -5.5690     1.9720     2.5780 ca         1 3UD      -0.106000
     49 C7          -4.4690     2.7700     2.8510 ca         1 3UD      -0.104000
     50 C6          -3.1810     2.2840     2.6670 ca         1 3UD      -0.099000
     51 H1           3.4940     3.2260    -1.7690 h1         1 3UD       0.022700
     52 H2           4.3860     4.1230    -0.5200 h1         1 3UD       0.022700
     53 H3           4.7800     4.3480    -2.2330 h1         1 3UD       0.022700
     54 H4           3.4420     2.1680     0.1810 ha         1 3UD       0.087000
     55 H6           7.0980    -1.0790     0.4550 ha         1 3UD       0.132000
     56 H7           5.1410    -1.3790     1.8720 ha         1 3UD       0.128000
     57 H8           2.2780     1.0100     1.5830 hn         1 3UD       0.128000
     58 H9           1.1030    -0.4320     4.3770 hc         1 3UD       0.055700
     59 H10          0.8660     0.7340     3.1000 hc         1 3UD       0.055700
     60 H11         -1.9910    -1.5600     2.6190 hc         1 3UD       0.064700
     61 H12         -1.4350    -0.5170     3.9130 hc         1 3UD       0.064700
     62 H13         -0.0470    -2.5650     4.3650 hc         1 3UD       0.051700
     63 H14         -0.3950    -3.3790     2.8380 hc         1 3UD       0.051700
     64 H15          1.2740    -3.0350     3.2970 hc         1 3UD       0.051700
     65 H16         -0.7670    -0.4500    -1.7240 h1         1 3UD       0.061700
     66 H17          2.1590    -1.1580    -1.2190 hc         1 3UD       0.125700
     67 H18          2.3590    -0.9700    -3.6840 hc         1 3UD       0.074450
     68 H19          0.5720    -0.6680    -3.8320 hc         1 3UD       0.074450
     69 H20          0.7590     1.3490    -2.3770 hc         1 3UD       0.074450
     70 H21          2.5460     1.0750    -2.1930 hc         1 3UD       0.074450
     71 H22         -0.3330    -2.6480    -2.5810 h1         1 3UD       0.115700
     72 H23          0.3210    -3.2170    -1.0390 h1         1 3UD       0.115700
     73 H24         -1.4880    -4.1330    -3.6940 hc         1 3UD       0.053256
     74 H25         -2.7160    -5.3830    -3.7120 hc         1 3UD       0.053256
     75 H26         -3.2020    -3.6970    -3.5740 hc         1 3UD       0.053256
     76 H27         -1.2310    -5.6630    -0.2560 hc         1 3UD       0.053256
     77 H28         -1.5830    -6.5670    -1.7260 hc         1 3UD       0.053256
     78 H29         -0.3420    -5.3250    -1.7510 hc         1 3UD       0.053256
     79 H30         -4.5340    -4.2670    -1.4450 hc         1 3UD       0.053256
     80 H31         -4.0480    -5.9410    -1.6880 hc         1 3UD       0.053256
     81 H32         -3.7470    -5.1680    -0.1360 hc         1 3UD       0.053256
     82 H33         -2.2440    -0.3100     0.1290 h1         1 3UD       0.066700
     83 H34          0.5890     2.1220     0.8170 ha         1 3UD       0.134000
     84 H35         -2.7110     3.3150    -2.6580 ha         1 3UD       0.131000
     85 H36         -2.9400     1.1860    -1.4370 ha         1 3UD       0.138000
     86 H37         -0.8940     1.2610     2.3160 hc         1 3UD       0.060700
     87 H38         -3.9430    -0.8310     1.5730 ha         1 3UD       0.143000
     88 H39         -6.5730     2.3470     2.7190 ha         1 3UD       0.125000
     89 H40         -4.6210     3.7800     3.2090 ha         1 3UD       0.116000
     90 H41         -2.3320     2.9210     2.8820 ha         1 3UD       0.118000
@<TRIPOS>BOND
     1     1     2 1   
     2     1    51 1   
     3     1    52 1   
     4     1    53 1   
     5     2     3 1   
     6     3     4 ar  
     7     3     5 ar  
     8     4    11 ar  
     9     4    54 1   
    10     5     6 1   
    11     5     9 ar  
    12     6     7 1   
    13     6     8 1   
    14     9    10 ar  
    15     9    55 1   
    16    10    11 ar  
    17    10    56 1   
    18    11    12 1   
    19    12    13 1   
    20    12    57 1   
    21    13    14 2   
    22    13    15 1   
    23    15    16 1   
    24    15    58 1   
    25    15    59 1   
    26    16    17 1   
    27    16    18 1   
    28    16    19 1   
    29    17    43 1   
    30    17    60 1   
    31    17    61 1   
    32    18    62 1   
    33    18    63 1   
    34    18    64 1   
    35    19    20 2   
    36    19    21 1   
    37    21    22 1   
    38    21    34 1   
    39    22    23 1   
    40    22    26 1   
    41    22    65 1   
    42    23    24 1   
    43    23    25 1   
    44    23    66 1   
    45    24    25 1   
    46    24    67 1   
    47    24    68 1   
    48    25    69 1   
    49    25    70 1   
    50    26    27 1   
    51    26    71 1   
    52    26    72 1   
    53    27    28 2   
    54    27    29 2   
    55    27    30 1   
    56    30    31 1   
    57    30    32 1   
    58    30    33 1   
    59    31    73 1   
    60    31    74 1   
    61    31    75 1   
    62    32    76 1   
    63    32    77 1   
    64    32    78 1   
    65    33    79 1   
    66    33    80 1   
    67    33    81 1   
    68    34    35 1   
    69    34    43 1   
    70    34    82 1   
    71    35    36 ar  
    72    35    42 ar  
    73    36    37 ar  
    74    36    83 1   
    75    37    38 1   
    76    37    39 ar  
    77    39    40 1   
    78    39    41 ar  
    79    41    42 ar  
    80    41    84 1   
    81    42    85 1   
    82    43    44 1   
    83    43    86 1   
    84    44    45 ar  
    85    44    50 ar  
    86    45    46 ar  
    87    45    87 1   
    88    46    47 1   
    89    46    48 ar  
    90    48    49 ar  
    91    48    88 1   
    92    49    50 ar  
    93    49    89 1   
    94    50    90 1   
@<TRIPOS>SUBSTRUCTURE
     1 3UD         1 TEMP              0 ****  ****    0 ROOT
