@<TRIPOS>MOLECULE
3UD
   90    94     1     0     0
SMALL
No Charge or Current Charge


@<TRIPOS>ATOM
      1 C34          4.5710     3.6510    -1.8050 c3         1 3UD       0.149900
      2 O5           5.6250     2.6950    -1.5940 os         1 3UD      -0.290100
      3 C31          5.5290     1.6780    -0.6630 ca         1 3UD       0.174100
      4 C32          4.3840     1.5230     0.1500 ca         1 3UD      -0.291000
      5 C30          6.6130     0.7910    -0.5090 ca         1 3UD      -0.164600
      6 C33          7.8450     0.9240    -1.3550 c          1 3UD       0.721600
      7 O7           8.9170     1.0580    -0.7820 o          1 3UD      -0.715500
      8 O6           7.7400     0.7880    -2.5660 o          1 3UD      -0.715500
      9 C29          6.5440    -0.2310     0.4590 ca         1 3UD      -0.052000
     10 C28          5.4000    -0.3790     1.2600 ca         1 3UD      -0.178000
     11 C27          4.3110     0.5000     1.1100 ca         1 3UD      -0.026000
     12 N2           3.1140     0.4090     1.8640 ns         1 3UD      -0.135000
     13 C20          2.7210    -0.4010     2.9230 c          1 3UD       0.610100
     14 O2           3.4480    -1.2040     3.4960 o          1 3UD      -0.577100
     15 C19          1.2590    -0.1610     3.3550 c3         1 3UD      -0.160400
     16 C18          0.2170    -1.2260     2.8160 c6         1 3UD      -0.098000
     17 C5          -1.2470    -0.7420     3.0130 c6         1 3UD      -0.074400
     18 C26          0.4180    -2.5500     3.6290 c3         1 3UD      -0.080100
     19 C17          0.5040    -1.4950     1.3050 c          1 3UD       0.572000
     20 O1           1.3860    -2.2820     0.9910 o          1 3UD      -0.534000
     21 N1          -0.2710    -0.8250     0.2820 n          1 3UD      -0.413800
     22 C11         -0.1080    -1.1370    -1.2030 c3         1 3UD       0.180700
     23 C12          1.2890    -0.8190    -1.7440 cx         1 3UD      -0.134700
     24 C35          1.5270    -0.6700    -3.2300 cx         1 3UD      -0.126900
     25 C36          1.6240     0.5350    -2.3270 cx         1 3UD      -0.126900
     26 C13         -0.5390    -2.5750    -1.5560 c3         1 3UD      -0.290400
     27 S1          -2.2790    -2.9140    -1.2230 s6         1 3UD       1.019000
     28 O3          -2.4450    -3.0180     0.2330 o          1 3UD      -0.532500
     29 O4          -3.0700    -1.9160    -1.9550 o          1 3UD      -0.532500
     30 C14         -2.6330    -4.5800    -1.9550 c3         1 3UD      -0.209000
     31 C16         -2.4350    -4.5530    -3.4990 c3         1 3UD      -0.085100
     32 C37         -1.6940    -5.6510    -1.3290 c3         1 3UD      -0.085100
     33 C15         -4.1110    -4.9510    -1.6410 c3         1 3UD      -0.085100
     34 C2          -1.3510     0.1640     0.6030 c6         1 3UD       0.169000
     35 C1          -1.1570     1.4880    -0.1540 ca         1 3UD      -0.072300
     36 C25         -0.0010     2.2700     0.0560 ca         1 3UD      -0.124000
     37 C24          0.1780     3.4730    -0.6440 ca         1 3UD       0.176000
     38 F1           1.2990     4.2010    -0.4350 f          1 3UD      -0.158000
     39 C23         -0.7960     3.9100    -1.5620 ca         1 3UD       0.071000
     40 Cl2         -0.5830     5.4150    -2.4550 cl         1 3UD      -0.173000
     41 C22         -1.9500     3.1380    -1.7730 ca         1 3UD      -0.083000
     42 C21         -2.1310     1.9320    -1.0720 ca         1 3UD      -0.107000
     43 C3          -1.6170     0.4540     2.1090 c6         1 3UD      -0.019400
     44 C4          -3.0710     0.9050     2.3250 ca         1 3UD      -0.070300
     45 C10         -4.1460     0.0160     2.1100 ca         1 3UD      -0.094000
     46 C9          -5.4700     0.4450     2.2920 ca         1 3UD       0.120000
     47 Cl1         -6.7990    -0.6730     2.0160 cl         1 3UD      -0.211000
     48 C8          -5.7370     1.7650     2.6900 ca         1 3UD      -0.106000
     49 C7          -4.6750     2.6590     2.9030 ca         1 3UD      -0.104000
     50 C6          -3.3480     2.2310     2.7200 ca         1 3UD      -0.099000
     51 H1           3.6490     3.1510    -2.1270 h1         1 3UD       0.022700
     52 H2           4.3660     4.2130    -0.8850 h1         1 3UD       0.022700
     53 H3           4.8600     4.3660    -2.5850 h1         1 3UD       0.022700
     54 H4           3.5360     2.1940     0.0470 ha         1 3UD       0.087000
     55 H6           7.3800    -0.9170     0.5820 ha         1 3UD       0.132000
     56 H7           5.3770    -1.1870     1.9850 ha         1 3UD       0.128000
     57 H8           2.3960     1.0440     1.5460 hn         1 3UD       0.128000
     58 H9           1.2230    -0.1410     4.4510 hc         1 3UD       0.055700
     59 H10          0.9880     0.8310     2.9860 hc         1 3UD       0.055700
     60 H11         -1.9280    -1.5780     2.8020 hc         1 3UD       0.064700
     61 H12         -1.4160    -0.4730     4.0660 hc         1 3UD       0.064700
     62 H13          0.2100    -2.4000     4.6960 hc         1 3UD       0.051700
     63 H14         -0.2580    -3.3380     3.2740 hc         1 3UD       0.051700
     64 H15          1.4370    -2.9430     3.5490 hc         1 3UD       0.051700
     65 H16         -0.7950    -0.4830    -1.7590 h1         1 3UD       0.061700
     66 H17          2.0820    -1.3220    -1.1970 hc         1 3UD       0.125700
     67 H18          2.4510    -1.0730    -3.6380 hc         1 3UD       0.074450
     68 H19          0.6710    -0.7320    -3.8980 hc         1 3UD       0.074450
     69 H20          0.8360     1.2780    -2.4160 hc         1 3UD       0.074450
     70 H21          2.6120     0.9410    -2.1270 hc         1 3UD       0.074450
     71 H22         -0.3940    -2.7470    -2.6250 h1         1 3UD       0.115700
     72 H23          0.0430    -3.3060    -0.9880 h1         1 3UD       0.115700
     73 H24         -1.3920    -4.3590    -3.7730 hc         1 3UD       0.053256
     74 H25         -2.7120    -5.5190    -3.9410 hc         1 3UD       0.053256
     75 H26         -3.0600    -3.7830    -3.9690 hc         1 3UD       0.053256
     76 H27         -1.7930    -5.6780    -0.2360 hc         1 3UD       0.053256
     77 H28         -1.9360    -6.6510    -1.7100 hc         1 3UD       0.053256
     78 H29         -0.6420    -5.4550    -1.5700 hc         1 3UD       0.053256
     79 H30         -4.8040    -4.2150    -2.0690 hc         1 3UD       0.053256
     80 H31         -4.3670    -5.9320    -2.0580 hc         1 3UD       0.053256
     81 H32         -4.2890    -4.9920    -0.5590 hc         1 3UD       0.053256
     82 H33         -2.2740    -0.2880     0.2160 h1         1 3UD       0.066700
     83 H34          0.7650     1.9420     0.7510 ha         1 3UD       0.134000
     84 H35         -2.7050     3.4730    -2.4810 ha         1 3UD       0.131000
     85 H36         -3.0290     1.3420    -1.2460 ha         1 3UD       0.138000
     86 H37         -0.9850     1.2960     2.4080 hc         1 3UD       0.060700
     87 H38         -3.9630    -1.0080     1.7940 ha         1 3UD       0.143000
     88 H39         -6.7640     2.0930     2.8290 ha         1 3UD       0.125000
     89 H40         -4.8790     3.6830     3.2080 ha         1 3UD       0.116000
     90 H41         -2.5360     2.9370     2.8830 ha         1 3UD       0.118000
@<TRIPOS>BOND
     1     1     2 1   
     2     1    51 1   
     3     1    52 1   
     4     1    53 1   
     5     2     3 1   
     6     3     4 ar  
     7     3     5 ar  
     8     4    11 ar  
     9     4    54 1   
    10     5     6 1   
    11     5     9 ar  
    12     6     7 1   
    13     6     8 1   
    14     9    10 ar  
    15     9    55 1   
    16    10    11 ar  
    17    10    56 1   
    18    11    12 1   
    19    12    13 1   
    20    12    57 1   
    21    13    14 2   
    22    13    15 1   
    23    15    16 1   
    24    15    58 1   
    25    15    59 1   
    26    16    17 1   
    27    16    18 1   
    28    16    19 1   
    29    17    43 1   
    30    17    60 1   
    31    17    61 1   
    32    18    62 1   
    33    18    63 1   
    34    18    64 1   
    35    19    20 2   
    36    19    21 1   
    37    21    22 1   
    38    21    34 1   
    39    22    23 1   
    40    22    26 1   
    41    22    65 1   
    42    23    24 1   
    43    23    25 1   
    44    23    66 1   
    45    24    25 1   
    46    24    67 1   
    47    24    68 1   
    48    25    69 1   
    49    25    70 1   
    50    26    27 1   
    51    26    71 1   
    52    26    72 1   
    53    27    28 2   
    54    27    29 2   
    55    27    30 1   
    56    30    31 1   
    57    30    32 1   
    58    30    33 1   
    59    31    73 1   
    60    31    74 1   
    61    31    75 1   
    62    32    76 1   
    63    32    77 1   
    64    32    78 1   
    65    33    79 1   
    66    33    80 1   
    67    33    81 1   
    68    34    35 1   
    69    34    43 1   
    70    34    82 1   
    71    35    36 ar  
    72    35    42 ar  
    73    36    37 ar  
    74    36    83 1   
    75    37    38 1   
    76    37    39 ar  
    77    39    40 1   
    78    39    41 ar  
    79    41    42 ar  
    80    41    84 1   
    81    42    85 1   
    82    43    44 1   
    83    43    86 1   
    84    44    45 ar  
    85    44    50 ar  
    86    45    46 ar  
    87    45    87 1   
    88    46    47 1   
    89    46    48 ar  
    90    48    49 ar  
    91    48    88 1   
    92    49    50 ar  
    93    49    89 1   
    94    50    90 1   
@<TRIPOS>SUBSTRUCTURE
     1 3UD         1 TEMP              0 ****  ****    0 ROOT
