@<TRIPOS>MOLECULE
3UE
   56    59     1     0     0
SMALL
bcc


@<TRIPOS>ATOM
      1 O01          1.9920    -3.1790     0.3040 o          1 3UE      -0.586100
      2 C02          1.8990    -1.9850     0.5550 c          1 3UE       0.677700
      3 C03          3.1290    -1.1350     0.4400 ca         1 3UE      -0.099600
      4 C04          3.6480    -0.4580     1.5380 ca         1 3UE      -0.118000
      5 C05          4.8390     0.2300     1.4120 ca         1 3UE      -0.076000
      6 C06          5.5090     0.2230     0.1970 ca         1 3UE      -0.161200
      7 N07          6.7680     0.9520     0.1490 no         1 3UE       0.309200
      8 O08          6.8630     1.9530     0.8200 o          1 3UE      -0.204500
      9 O09          7.6570     0.5140    -0.5410 o          1 3UE      -0.204500
     10 C10          5.0220    -0.4430    -0.9300 ca         1 3UE      -0.008300
     11 C11          5.6770    -0.4570    -2.2800 c3         1 3UE      -0.053800
     12 C12          3.8180    -1.1230    -0.7650 ca         1 3UE      -0.107000
     13 N13          0.7650    -1.3930     0.9660 n          1 3UE      -0.467800
     14 C14          0.5210     0.0390     0.9930 c6         1 3UE       0.094500
     15 C15         -0.5690     0.4090     0.0010 c6         1 3UE       0.136300
     16 C16         -0.4500    -2.1650     1.1590 c6         1 3UE       0.094500
     17 C17         -1.5140    -1.7580     0.1560 c6         1 3UE       0.136300
     18 N18         -1.7930    -0.3330     0.2620 n3         1 3UE      -0.711600
     19 C19         -2.8700     0.0900    -0.6200 c3         1 3UE       0.276100
     20 C20         -4.1430    -0.7050    -0.3980 ca         1 3UE      -0.086300
     21 C21         -4.6300    -0.9580     0.8830 ca         1 3UE      -0.115000
     22 C22         -5.8290    -1.6330     1.0590 ca         1 3UE      -0.130500
     23 C23         -6.5620    -2.0620    -0.0420 ca         1 3UE      -0.123500
     24 C24         -6.0820    -1.8150    -1.3200 ca         1 3UE      -0.130500
     25 C25         -4.8770    -1.1440    -1.4930 ca         1 3UE      -0.115000
     26 C26         -3.2080     1.5580    -0.4390 ca         1 3UE      -0.086300
     27 C27         -3.2250     2.1520     0.8210 ca         1 3UE      -0.115000
     28 C28         -3.6100     3.4770     0.9690 ca         1 3UE      -0.130500
     29 C29         -3.9870     4.2260    -0.1390 ca         1 3UE      -0.123500
     30 C30         -3.9660     3.6430    -1.3980 ca         1 3UE      -0.130500
     31 C31         -3.5750     2.3170    -1.5440 ca         1 3UE      -0.115000
     32 H1           3.1350    -0.4680     2.4900 ha         1 3UE       0.152000
     33 H2           5.2480     0.7530     2.2650 ha         1 3UE       0.168000
     34 H3           6.5400    -1.1210    -2.2980 hc         1 3UE       0.061367
     35 H4           4.9660    -0.8150    -3.0220 hc         1 3UE       0.061367
     36 H5           6.0140     0.5310    -2.5910 hc         1 3UE       0.061367
     37 H6           3.4040    -1.6470    -1.6180 ha         1 3UE       0.154000
     38 H7           0.2180     0.3320     2.0020 h1         1 3UE       0.065450
     39 H8           1.4230     0.5910     0.7430 h1         1 3UE       0.065450
     40 H9          -0.7520     1.4790     0.0930 h1         1 3UE       0.048950
     41 H10         -0.2010     0.2300    -1.0240 h1         1 3UE       0.048950
     42 H11         -0.2320    -3.2250     1.0620 h1         1 3UE       0.065450
     43 H12         -0.8160    -1.9850     2.1740 h1         1 3UE       0.065450
     44 H13         -1.1840    -2.0310    -0.8610 h1         1 3UE       0.048950
     45 H14         -2.4140    -2.3330     0.3690 h1         1 3UE       0.048950
     46 H16         -2.5810    -0.0520    -1.6770 h1         1 3UE       0.032700
     47 H17         -4.0660    -0.6370     1.7500 ha         1 3UE       0.134250
     48 H18         -6.1930    -1.8260     2.0600 ha         1 3UE       0.131000
     49 H19         -7.4970    -2.5880     0.0980 ha         1 3UE       0.131000
     50 H20         -6.6410    -2.1470    -2.1860 ha         1 3UE       0.131000
     51 H21         -4.5060    -0.9600    -2.4950 ha         1 3UE       0.134250
     52 H22         -2.9180     1.5820     1.6890 ha         1 3UE       0.134250
     53 H23         -3.6150     3.9260     1.9540 ha         1 3UE       0.131000
     54 H24         -4.2880     5.2600    -0.0200 ha         1 3UE       0.131000
     55 H25         -4.2480     4.2190    -2.2700 ha         1 3UE       0.131000
     56 H26         -3.5540     1.8700    -2.5310 ha         1 3UE       0.134250
@<TRIPOS>BOND
     1     1     2 2   
     2     2     3 1   
     3     2    13 1   
     4     3     4 ar  
     5     3    12 ar  
     6     4     5 ar  
     7     4    32 1   
     8     5     6 ar  
     9     5    33 1   
    10     6     7 1   
    11     6    10 ar  
    12     7     8 1   
    13     7     9 1   
    14    10    11 1   
    15    10    12 ar  
    16    11    34 1   
    17    11    35 1   
    18    11    36 1   
    19    12    37 1   
    20    13    14 1   
    21    13    16 1   
    22    14    15 1   
    23    14    38 1   
    24    14    39 1   
    25    15    18 1   
    26    15    40 1   
    27    15    41 1   
    28    16    17 1   
    29    16    42 1   
    30    16    43 1   
    31    17    18 1   
    32    17    44 1   
    33    17    45 1   
    34    18    19 1   
    35    19    20 1   
    36    19    26 1   
    37    19    46 1   
    38    20    21 ar  
    39    20    25 ar  
    40    21    22 ar  
    41    21    47 1   
    42    22    23 ar  
    43    22    48 1   
    44    23    24 ar  
    45    23    49 1   
    46    24    25 ar  
    47    24    50 1   
    48    25    51 1   
    49    26    27 ar  
    50    26    31 ar  
    51    27    28 ar  
    52    27    52 1   
    53    28    29 ar  
    54    28    53 1   
    55    29    30 ar  
    56    29    54 1   
    57    30    31 ar  
    58    30    55 1   
    59    31    56 1   
@<TRIPOS>SUBSTRUCTURE
     1 3UE         1 TEMP              0 ****  ****    0 ROOT
