@<TRIPOS>MOLECULE
3UE
   56    59     1     0     0
SMALL
No Charge or Current Charge


@<TRIPOS>ATOM
      1 O01          1.8180    -2.9180    -0.5340 o          1 3UE      -0.586100
      2 C02          1.9030    -1.8590     0.0780 c          1 3UE       0.610700
      3 C03          3.2220    -1.1130     0.1420 ca         1 3UE      -0.099600
      4 C04          3.6040    -0.3710     1.2800 ca         1 3UE      -0.100000
      5 C05          4.8410     0.2900     1.3190 ca         1 3UE      -0.058000
      6 C06          5.7360     0.2120     0.2290 ca         1 3UE      -0.161200
      7 N07          7.0460     0.9270     0.3280 no         1 3UE       0.689200
      8 O08          7.0590     2.0230     0.9040 o          1 3UE      -0.394500
      9 O09          8.0700     0.3230    -0.0160 o          1 3UE      -0.394500
     10 C10          5.3700    -0.5420    -0.9180 ca         1 3UE      -0.008300
     11 C11          6.2660    -0.6450    -2.1500 c3         1 3UE      -0.053800
     12 C12          4.1240    -1.2020    -0.9390 ca         1 3UE      -0.089000
     13 N13          0.8040    -1.3660     0.8180 n          1 3UE      -0.400800
     14 C14          0.5100     0.0950     0.9100 c6         1 3UE       0.094500
     15 C15         -0.6860     0.5100     0.0080 c6         1 3UE       0.136300
     16 C16         -0.4160    -2.1910     1.0380 c6         1 3UE       0.094500
     17 C17         -1.5910    -1.7600     0.1210 c6         1 3UE       0.136300
     18 N18         -1.9100    -0.3070     0.2740 n3         1 3UE      -0.711600
     19 C19         -3.0840     0.1200    -0.5430 c3         1 3UE       0.276100
     20 C20         -4.3470    -0.7100    -0.2810 ca         1 3UE      -0.086300
     21 C21         -4.7820    -0.9800     1.0340 ca         1 3UE      -0.097000
     22 C22         -5.9450    -1.7370     1.2600 ca         1 3UE      -0.112500
     23 C23         -6.6850    -2.2300     0.1730 ca         1 3UE      -0.105500
     24 C24         -6.2620    -1.9640    -1.1400 ca         1 3UE      -0.112500
     25 C25         -5.0990    -1.2080    -1.3660 ca         1 3UE      -0.097000
     26 C26         -3.4200     1.6100    -0.4000 ca         1 3UE      -0.086300
     27 C27         -3.5110     2.2170     0.8720 ca         1 3UE      -0.097000
     28 C28         -3.8250     3.5820     0.9890 ca         1 3UE      -0.112500
     29 C29         -4.0550     4.3530    -0.1620 ca         1 3UE      -0.105500
     30 C30         -3.9700     3.7570    -1.4310 ca         1 3UE      -0.112500
     31 C31         -3.6540     2.3920    -1.5500 ca         1 3UE      -0.097000
     32 H1           2.9530    -0.3190     2.1500 ha         1 3UE       0.134000
     33 H2           5.1110     0.8520     2.2130 ha         1 3UE       0.150000
     34 H3           7.1070    -1.3250    -1.9710 hc         1 3UE       0.061367
     35 H4           5.7190    -1.0260    -3.0200 hc         1 3UE       0.061367
     36 H5           6.6730     0.3330    -2.4350 hc         1 3UE       0.061367
     37 H6           3.8440    -1.7830    -1.8160 ha         1 3UE       0.136000
     38 H7           0.2780     0.3470     1.9540 h1         1 3UE       0.065450
     39 H8           1.3790     0.6960     0.6120 h1         1 3UE       0.065450
     40 H9          -0.8810     1.5780     0.1780 h1         1 3UE       0.048950
     41 H10         -0.3840     0.4040    -1.0440 h1         1 3UE       0.048950
     42 H11         -0.2000    -3.2570     0.8790 h1         1 3UE       0.065450
     43 H12         -0.7280    -2.0830     2.0860 h1         1 3UE       0.065450
     44 H13         -1.3240    -1.9830    -0.9230 h1         1 3UE       0.048950
     45 H14         -2.4600    -2.3840     0.3690 h1         1 3UE       0.048950
     46 H16         -2.8140    -0.0420    -1.5960 h1         1 3UE       0.032700
     47 H17         -4.2130    -0.6070     1.8830 ha         1 3UE       0.116250
     48 H18         -6.2700    -1.9410     2.2780 ha         1 3UE       0.113000
     49 H19         -7.5850    -2.8150     0.3480 ha         1 3UE       0.113000
     50 H20         -6.8350    -2.3440    -1.9820 ha         1 3UE       0.113000
     51 H21         -4.7830    -1.0070    -2.3870 ha         1 3UE       0.116250
     52 H22         -3.3290     1.6300     1.7690 ha         1 3UE       0.116250
     53 H23         -3.8900     4.0410     1.9730 ha         1 3UE       0.113000
     54 H24         -4.2980     5.4090    -0.0710 ha         1 3UE       0.113000
     55 H25         -4.1480     4.3520    -2.3240 ha         1 3UE       0.113000
     56 H26         -3.5940     1.9410    -2.5380 ha         1 3UE       0.116250
@<TRIPOS>BOND
     1     1     2 2   
     2     2     3 1   
     3     2    13 1   
     4     3     4 ar  
     5     3    12 ar  
     6     4     5 ar  
     7     4    32 1   
     8     5     6 ar  
     9     5    33 1   
    10     6     7 1   
    11     6    10 ar  
    12     7     8 1   
    13     7     9 1   
    14    10    11 1   
    15    10    12 ar  
    16    11    34 1   
    17    11    35 1   
    18    11    36 1   
    19    12    37 1   
    20    13    14 1   
    21    13    16 1   
    22    14    15 1   
    23    14    38 1   
    24    14    39 1   
    25    15    18 1   
    26    15    40 1   
    27    15    41 1   
    28    16    17 1   
    29    16    42 1   
    30    16    43 1   
    31    17    18 1   
    32    17    44 1   
    33    17    45 1   
    34    18    19 1   
    35    19    20 1   
    36    19    26 1   
    37    19    46 1   
    38    20    21 ar  
    39    20    25 ar  
    40    21    22 ar  
    41    21    47 1   
    42    22    23 ar  
    43    22    48 1   
    44    23    24 ar  
    45    23    49 1   
    46    24    25 ar  
    47    24    50 1   
    48    25    51 1   
    49    26    27 ar  
    50    26    31 ar  
    51    27    28 ar  
    52    27    52 1   
    53    28    29 ar  
    54    28    53 1   
    55    29    30 ar  
    56    29    54 1   
    57    30    31 ar  
    58    30    55 1   
    59    31    56 1   
@<TRIPOS>SUBSTRUCTURE
     1 3UE         1 TEMP              0 ****  ****    0 ROOT
