@<TRIPOS>MOLECULE
3UF
   25    25     1     0     0
SMALL
No Charge or Current Charge


@<TRIPOS>ATOM
      1 C6           1.3190     1.3460     0.0090 ca         1 3UF       0.008000
      2 C5           1.7410     0.0030    -0.0660 ca         1 3UF      -0.288500
      3 O4           3.6970    -1.6940    -0.7680 o          1 3UF      -0.544000
      4 S2           3.4870    -0.3960    -0.1260 sy         1 3UF       1.127600
      5 O1           4.2630     0.7950    -0.4660 o          1 3UF      -0.544000
      6 N3           3.8240    -0.6430     1.4550 n8         1 3UF      -1.001100
      7 C10          0.7810    -1.0280    -0.0950 ca         1 3UF       0.008000
      8 C9          -0.5900    -0.7190    -0.0480 ca         1 3UF      -0.138000
      9 C8          -1.0160     0.6230     0.0280 ca         1 3UF      -0.037000
     10 C7          -0.0530     1.6480     0.0560 ca         1 3UF      -0.138000
     11 S11         -2.7490     1.0940     0.0920 ss         1 3UF      -0.149000
     12 C12         -3.7060    -0.4870     0.0200 c3         1 3UF       0.033600
     13 C13         -5.2200    -0.2070     0.0620 c3         1 3UF       0.173600
     14 O14         -5.9470    -1.4410     0.0050 oh         1 3UF      -0.658000
     15 H1           2.0440     2.1590     0.0310 ha         1 3UF       0.138000
     16 H2           4.6220    -0.0240     1.5810 hn         1 3UF       0.472000
     17 H3           3.0620    -0.1540     1.9170 hn         1 3UF       0.472000
     18 H4           1.0910    -2.0710    -0.1520 ha         1 3UF       0.138000
     19 H5          -1.3030    -1.5370    -0.0710 ha         1 3UF       0.126000
     20 H6          -0.3700     2.6860     0.1140 ha         1 3UF       0.126000
     21 H7          -3.4580    -1.0140    -0.9100 h1         1 3UF       0.080200
     22 H8          -3.4260    -1.1150     0.8750 h1         1 3UF       0.080200
     23 H9          -5.4590     0.3360     0.9870 h1         1 3UF       0.032700
     24 H10         -5.4900     0.4360    -0.7870 h1         1 3UF       0.032700
     25 H11         -6.9040    -1.2120     0.0350 ho         1 3UF       0.450000
@<TRIPOS>BOND
     1     1     2 ar  
     2     1    10 ar  
     3     1    15 1   
     4     2     4 1   
     5     2     7 ar  
     6     3     4 2   
     7     4     5 2   
     8     4     6 1   
     9     6    16 1   
    10     6    17 1   
    11     7     8 ar  
    12     7    18 1   
    13     8     9 ar  
    14     8    19 1   
    15     9    10 ar  
    16     9    11 1   
    17    10    20 1   
    18    11    12 1   
    19    12    13 1   
    20    12    21 1   
    21    12    22 1   
    22    13    14 1   
    23    13    23 1   
    24    13    24 1   
    25    14    25 1   
@<TRIPOS>SUBSTRUCTURE
     1 3UF         1 TEMP              0 ****  ****    0 ROOT
