@<TRIPOS>MOLECULE
3UF
   25    25     1     0     0
SMALL
abcg2


@<TRIPOS>ATOM
      1 C6           1.2050     1.4420    -0.0700 ca         1 3UF       0.008000
      2 C5           1.6520     0.1270    -0.0580 ca         1 3UF      -0.288500
      3 O4           3.6490    -1.3820    -0.8930 o          1 3UF      -0.544000
      4 S2           3.3810    -0.2240    -0.0520 sy         1 3UF       1.127600
      5 O1           4.0930     1.0150    -0.3390 o          1 3UF      -0.544000
      6 N3           3.5920    -0.7450     1.5020 n8         1 3UF      -1.001100
      7 C10          0.7510    -0.9280    -0.0600 ca         1 3UF       0.008000
      8 C9          -0.6080    -0.6710    -0.0710 ca         1 3UF      -0.138000
      9 C8          -1.0730     0.6450    -0.0790 ca         1 3UF      -0.037000
     10 C7          -0.1530     1.6970    -0.0790 ca         1 3UF      -0.138000
     11 S11         -2.7680     1.0850    -0.0990 ss         1 3UF      -0.149000
     12 C12         -3.6260    -0.5060     0.0290 c3         1 3UF       0.033600
     13 C13         -5.1210    -0.2350     0.0580 c3         1 3UF       0.173600
     14 O14         -5.7610    -1.4850     0.1500 oh         1 3UF      -0.658000
     15 H1           1.9020     2.2680    -0.0700 ha         1 3UF       0.138000
     16 H2           4.4810    -1.2250     1.6130 hn         1 3UF       0.472000
     17 H3           3.5170     0.0070     2.1800 hn         1 3UF       0.472000
     18 H4           1.0940    -1.9550    -0.0550 ha         1 3UF       0.138000
     19 H5          -1.2920    -1.5070    -0.0770 ha         1 3UF       0.126000
     20 H6          -0.4980     2.7240    -0.0830 ha         1 3UF       0.126000
     21 H7          -3.3760    -1.1320    -0.8280 h1         1 3UF       0.080200
     22 H8          -3.3160    -1.0130     0.9450 h1         1 3UF       0.080200
     23 H9          -5.3620     0.4100     0.9120 h1         1 3UF       0.032700
     24 H10         -5.4130     0.3060    -0.8510 h1         1 3UF       0.032700
     25 H11         -6.7110    -1.3350     0.1540 ho         1 3UF       0.450000
@<TRIPOS>BOND
     1     1     2 ar  
     2     1    10 ar  
     3     1    15 1   
     4     2     4 1   
     5     2     7 ar  
     6     3     4 2   
     7     4     5 2   
     8     4     6 1   
     9     6    16 1   
    10     6    17 1   
    11     7     8 ar  
    12     7    18 1   
    13     8     9 ar  
    14     8    19 1   
    15     9    10 ar  
    16     9    11 1   
    17    10    20 1   
    18    11    12 1   
    19    12    13 1   
    20    12    21 1   
    21    12    22 1   
    22    13    14 1   
    23    13    23 1   
    24    13    24 1   
    25    14    25 1   
@<TRIPOS>SUBSTRUCTURE
     1 3UF         1 TEMP              0 ****  ****    0 ROOT
