@<TRIPOS>MOLECULE
3UG
   32    33     1     0     0
SMALL
abcg2


@<TRIPOS>ATOM
      1 C11          1.0780     0.9860    -0.2950 ca         1 3UG       0.275000
      2 C5           1.6920    -0.2110     0.0580 ca         1 3UG      -0.361500
      3 C10         -0.2910     1.1340    -0.2700 ca         1 3UG       0.050500
      4 C7          -0.5100    -1.1260     0.3920 ca         1 3UG       0.050500
      5 C6           0.8610    -1.2690     0.4100 ca         1 3UG       0.275000
      6 F14         -0.7920     2.3400    -0.5410 f          1 3UG      -0.153000
      7 F13          1.8140     2.0440    -0.6090 f          1 3UG      -0.124500
      8 S1           3.4620    -0.3250    -0.0120 sy         1 3UG       1.165600
      9 O3           3.9050     0.2030    -1.2890 o          1 3UG      -0.530000
     10 N4           3.8850     0.7770     1.1300 n8         1 3UG      -1.020100
     11 O2           3.8400    -1.6770     0.3510 o          1 3UG      -0.530000
     12 C9          -1.1450     0.0750     0.0570 ca         1 3UG       0.347000
     13 F12         -1.2550    -2.1960     0.6720 f          1 3UG      -0.153000
     14 F8           1.3430    -2.4580     0.7390 f          1 3UG      -0.124500
     15 N20         -2.5130     0.1490     0.0450 nh         1 3UG      -0.822400
     16 C15         -3.2200     0.9670    -0.9300 c6         1 3UG       0.222300
     17 C19         -3.2570    -0.0900     1.2780 c6         1 3UG       0.222300
     18 C18         -4.5840    -0.7670     0.9790 c6         1 3UG      -0.085900
     19 C17         -5.3810     0.0410    -0.0370 c6         1 3UG      -0.075400
     20 C16         -4.5440     0.3010    -1.2840 c6         1 3UG      -0.085900
     21 H1           3.8620     0.4070     2.0740 hn         1 3UG       0.483000
     22 H2           4.7790     1.2140     0.9280 hn         1 3UG       0.483000
     23 H3          -3.4160     1.9750    -0.5410 h1         1 3UG       0.047450
     24 H4          -2.6120     1.0670    -1.8290 h1         1 3UG       0.047450
     25 H5          -2.6640    -0.6910     1.9650 h1         1 3UG       0.047450
     26 H6          -3.4390     0.8710     1.7790 h1         1 3UG       0.047450
     27 H7          -4.3940    -1.7720     0.5920 hc         1 3UG       0.053950
     28 H8          -5.1440    -0.8790     1.9100 hc         1 3UG       0.053950
     29 H9          -6.3050    -0.4770    -0.3000 hc         1 3UG       0.043700
     30 H10         -5.6730     0.9980     0.4090 hc         1 3UG       0.043700
     31 H11         -5.0820     0.9450    -1.9830 hc         1 3UG       0.053950
     32 H12         -4.3430    -0.6420    -1.8010 hc         1 3UG       0.053950
@<TRIPOS>BOND
     1     1     2 ar  
     2     1     3 ar  
     3     1     7 1   
     4     2     5 ar  
     5     2     8 1   
     6     3     6 1   
     7     3    12 ar  
     8     4     5 ar  
     9     4    12 ar  
    10     4    13 1   
    11     5    14 1   
    12     8     9 2   
    13     8    10 1   
    14     8    11 2   
    15    10    21 1   
    16    10    22 1   
    17    12    15 1   
    18    15    16 1   
    19    15    17 1   
    20    16    20 1   
    21    16    23 1   
    22    16    24 1   
    23    17    18 1   
    24    17    25 1   
    25    17    26 1   
    26    18    19 1   
    27    18    27 1   
    28    18    28 1   
    29    19    20 1   
    30    19    29 1   
    31    19    30 1   
    32    20    31 1   
    33    20    32 1   
@<TRIPOS>SUBSTRUCTURE
     1 3UG         1 TEMP              0 ****  ****    0 ROOT
