@<TRIPOS>MOLECULE
3UG
   32    33     1     0     0
SMALL
No Charge or Current Charge


@<TRIPOS>ATOM
      1 C11          1.1040     1.0820    -0.2340 ca         1 3UG       0.275000
      2 C5           1.7290    -0.1510     0.0340 ca         1 3UG      -0.361500
      3 C10         -0.2980     1.1950    -0.2420 ca         1 3UG       0.050500
      4 C7          -0.4800    -1.1660     0.3060 ca         1 3UG       0.050500
      5 C6           0.9220    -1.2730     0.3110 ca         1 3UG       0.275000
      6 F14         -0.8540     2.4110    -0.4820 f          1 3UG      -0.153000
      7 F13          1.8370     2.1950    -0.4730 f          1 3UG      -0.124500
      8 S1           3.5110    -0.2510     0.0350 sy         1 3UG       1.165600
      9 O3           4.0810     0.6010    -1.0040 o          1 3UG      -0.530000
     10 N4           3.9020     0.5280     1.4090 n8         1 3UG      -1.020100
     11 O2           3.9930    -1.6100     0.2600 o          1 3UG      -0.530000
     12 C9          -1.1110     0.0670     0.0230 ca         1 3UG       0.347000
     13 F12         -1.2260    -2.2730     0.5650 f          1 3UG      -0.153000
     14 F8           1.4660    -2.4800     0.5880 f          1 3UG      -0.124500
     15 N20         -2.5360     0.1490     0.0210 nh         1 3UG      -0.822400
     16 C15         -3.2740     0.8520    -1.0650 c6         1 3UG       0.222300
     17 C19         -3.2880     0.0430     1.3020 c6         1 3UG       0.222300
     18 C18         -4.6540    -0.6490     1.0780 c6         1 3UG      -0.085900
     19 C17         -5.4720     0.0650    -0.0250 c6         1 3UG      -0.075400
     20 C16         -4.6390     0.1700    -1.3250 c6         1 3UG      -0.085900
     21 H1           4.4980    -0.1710     1.8470 hn         1 3UG       0.483000
     22 H2           4.5830     1.1920     1.0490 hn         1 3UG       0.483000
     23 H3          -3.4420     1.9040    -0.7900 h1         1 3UG       0.047450
     24 H4          -2.6890     0.8420    -1.9970 h1         1 3UG       0.047450
     25 H5          -2.7140    -0.5330     2.0430 h1         1 3UG       0.047450
     26 H6          -3.4510     1.0460     1.7240 h1         1 3UG       0.047450
     27 H7          -4.4870    -1.6970     0.7940 hc         1 3UG       0.053950
     28 H8          -5.2200    -0.6650     2.0180 hc         1 3UG       0.053950
     29 H9          -6.4060    -0.4810    -0.2160 hc         1 3UG       0.043700
     30 H10         -5.7580     1.0700     0.3160 hc         1 3UG       0.043700
     31 H11         -5.1970     0.7340    -2.0850 hc         1 3UG       0.053950
     32 H12         -4.4710    -0.8330    -1.7390 hc         1 3UG       0.053950
@<TRIPOS>BOND
     1     1     2 ar  
     2     1     3 ar  
     3     1     7 1   
     4     2     5 ar  
     5     2     8 1   
     6     3     6 1   
     7     3    12 ar  
     8     4     5 ar  
     9     4    12 ar  
    10     4    13 1   
    11     5    14 1   
    12     8     9 2   
    13     8    10 1   
    14     8    11 2   
    15    10    21 1   
    16    10    22 1   
    17    12    15 1   
    18    15    16 1   
    19    15    17 1   
    20    16    20 1   
    21    16    23 1   
    22    16    24 1   
    23    17    18 1   
    24    17    25 1   
    25    17    26 1   
    26    18    19 1   
    27    18    27 1   
    28    18    28 1   
    29    19    20 1   
    30    19    29 1   
    31    19    30 1   
    32    20    31 1   
    33    20    32 1   
@<TRIPOS>SUBSTRUCTURE
     1 3UG         1 TEMP              0 ****  ****    0 ROOT
