@<TRIPOS>MOLECULE
3UH
   47    49     1     0     0
SMALL
No Charge or Current Charge


@<TRIPOS>ATOM
      1 O1          -3.5940    -1.7160     0.0850 os         1 3UH      -0.271100
      2 C2          -5.0250    -1.9380     0.0330 c3         1 3UH      -0.003400
      3 C3          -5.4150    -3.4430    -0.0320 c          1 3UH       0.729000
      4 O4          -4.5370    -4.2970    -0.0680 o          1 3UH      -0.705000
      5 O6          -6.6080    -3.7150    -0.0470 o          1 3UH      -0.705000
      6 C9          -3.0340    -0.4520     0.1330 ca         1 3UH       0.228100
      7 C10         -1.6250    -0.3090     0.1710 ca         1 3UH      -0.222600
      8 C11         -0.7140    -1.5160     0.2140 c          1 3UH       0.635700
      9 N12          0.5690    -1.3080    -0.2400 ns         1 3UH      -0.520900
     10 C14          1.6200    -2.3220    -0.2450 c3         1 3UH       0.144300
     11 C15          2.9400    -1.7310    -0.7130 ca         1 3UH      -0.104300
     12 C16          3.7700    -1.0470     0.1980 ca         1 3UH      -0.033000
     13 C17          4.9970    -0.4850    -0.2280 ca         1 3UH      -0.179200
     14 N18          5.8770     0.2420     0.7430 no         1 3UH       0.694200
     15 O19          5.4990     0.3360     1.9190 o          1 3UH      -0.404000
     16 O20          6.9430     0.7170     0.3270 o          1 3UH      -0.404000
     17 C21          5.3800    -0.6190    -1.5840 ca         1 3UH      -0.057000
     18 C22          4.5500    -1.3000    -2.4900 ca         1 3UH      -0.126000
     19 C23          3.3340    -1.8530    -2.0580 ca         1 3UH      -0.070000
     20 O30         -1.0440    -2.6020     0.6670 o          1 3UH      -0.554100
     21 C31         -1.0700     0.9960     0.1770 ca         1 3UH      -0.040000
     22 C33         -1.8800     2.1560     0.1480 cp         1 3UH      -0.126000
     23 C34         -1.2730     3.5250     0.1620 cp         1 3UH      -0.001000
     24 C35         -0.1020     3.8020     0.9130 ca         1 3UH      -0.111000
     25 C36          0.4670     5.0870     0.9250 ca         1 3UH      -0.113000
     26 C38         -0.1230     6.1240     0.1840 ca         1 3UH      -0.127000
     27 C39         -1.2820     5.8740    -0.5670 ca         1 3UH      -0.113000
     28 C40         -1.8510     4.5890    -0.5770 ca         1 3UH      -0.111000
     29 C45         -3.2810     1.9830     0.1110 ca         1 3UH      -0.037000
     30 C47         -3.8490     0.7020     0.1040 ca         1 3UH      -0.228000
     31 H1          -5.5060    -1.5100     0.9230 h1         1 3UH       0.021200
     32 H2          -5.4500    -1.4520    -0.8540 h1         1 3UH       0.021200
     33 H4           0.7790    -0.3950    -0.6200 hn         1 3UH       0.314500
     34 H5           1.7340    -2.7290     0.7690 h1         1 3UH       0.073200
     35 H6           1.3200    -3.1460    -0.9070 h1         1 3UH       0.073200
     36 H7           3.4500    -0.9540     1.2350 ha         1 3UH       0.163000
     37 H8           6.3180    -0.1990    -1.9440 ha         1 3UH       0.144000
     38 H9           4.8490    -1.3970    -3.5310 ha         1 3UH       0.121000
     39 H10          2.6970    -2.3740    -2.7700 ha         1 3UH       0.121000
     40 H11          0.0070     1.1280     0.2140 ha         1 3UH       0.103000
     41 H12          0.3610     3.0170     1.5050 ha         1 3UH       0.118000
     42 H13          1.3630     5.2800     1.5110 ha         1 3UH       0.106000
     43 H14          0.3180     7.1190     0.1930 ha         1 3UH       0.102000
     44 H15         -1.7390     6.6750    -1.1440 ha         1 3UH       0.106000
     45 H16         -2.7410     4.4130    -1.1760 ha         1 3UH       0.118000
     46 H17         -3.9370     2.8500     0.1010 ha         1 3UH       0.102000
     47 H18         -4.9310     0.6260     0.0730 ha         1 3UH       0.129000
@<TRIPOS>BOND
     1     1     2 1   
     2     1     6 1   
     3     2     3 1   
     4     2    31 1   
     5     2    32 1   
     6     3     4 1   
     7     3     5 1   
     8     6     7 ar  
     9     6    30 ar  
    10     7     8 1   
    11     7    21 ar  
    12     8     9 1   
    13     8    20 2   
    14     9    10 1   
    15     9    33 1   
    16    10    11 1   
    17    10    34 1   
    18    10    35 1   
    19    11    12 ar  
    20    11    19 ar  
    21    12    13 ar  
    22    12    36 1   
    23    13    14 1   
    24    13    17 ar  
    25    14    15 1   
    26    14    16 1   
    27    17    18 ar  
    28    17    37 1   
    29    18    19 ar  
    30    18    38 1   
    31    19    39 1   
    32    21    22 ar  
    33    21    40 1   
    34    22    23 1   
    35    22    29 ar  
    36    23    24 ar  
    37    23    28 ar  
    38    24    25 ar  
    39    24    41 1   
    40    25    26 ar  
    41    25    42 1   
    42    26    27 ar  
    43    26    43 1   
    44    27    28 ar  
    45    27    44 1   
    46    28    45 1   
    47    29    30 ar  
    48    29    46 1   
    49    30    47 1   
@<TRIPOS>SUBSTRUCTURE
     1 3UH         1 TEMP              0 ****  ****    0 ROOT
