@<TRIPOS>MOLECULE
3UH
   47    49     1     0     0
SMALL
bcc


@<TRIPOS>ATOM
      1 O1          -3.3060    -1.6920     0.2140 os         1 3UH      -0.247900
      2 C2          -4.7040    -1.9000     0.3230 c3         1 3UH      -0.026600
      3 C3          -5.0370    -3.4010     0.2980 c          1 3UH       0.939600
      4 O4          -4.1050    -4.2130     0.2400 o          1 3UH      -0.810300
      5 O6          -6.2610    -3.6320     0.3470 o          1 3UH      -0.810300
      6 C9          -2.8340    -0.4450     0.2330 ca         1 3UH       0.228100
      7 C10         -1.4470    -0.2930     0.0840 ca         1 3UH      -0.222600
      8 C11         -0.5440    -1.4840     0.0170 c          1 3UH       0.702700
      9 N12          0.2380    -1.5140    -1.0800 ns         1 3UH      -0.587900
     10 C14          1.3220    -2.4400    -1.2830 c3         1 3UH       0.144300
     11 C15          2.6770    -1.7800    -1.1670 ca         1 3UH      -0.104300
     12 C16          2.9000    -0.7770    -0.2350 ca         1 3UH      -0.051000
     13 C17          4.1520    -0.1920    -0.1480 ca         1 3UH      -0.179200
     14 N18          4.3600     0.8750     0.8210 no         1 3UH       0.314200
     15 O19          3.4080     1.2550     1.4630 o          1 3UH      -0.214000
     16 O20          5.4730     1.3300     0.9350 o          1 3UH      -0.214000
     17 C21          5.2070    -0.5830    -0.9600 ca         1 3UH      -0.075000
     18 C22          4.9790    -1.5890    -1.8840 ca         1 3UH      -0.144000
     19 C23          3.7260    -2.1780    -1.9890 ca         1 3UH      -0.088000
     20 O30         -0.4970    -2.3130     0.9090 o          1 3UH      -0.554100
     21 C31         -0.8870     0.9740     0.0600 ca         1 3UH      -0.058000
     22 C33         -1.6570     2.1270     0.2080 cp         1 3UH      -0.126000
     23 C34         -1.0300     3.4630     0.2160 cp         1 3UH      -0.001000
     24 C35          0.2390     3.6550     0.7690 ca         1 3UH      -0.129000
     25 C36          0.8300     4.9090     0.7770 ca         1 3UH      -0.131000
     26 C38          0.1630     6.0010     0.2380 ca         1 3UH      -0.145000
     27 C39         -1.0990     5.8250    -0.3130 ca         1 3UH      -0.131000
     28 C40         -1.6880     4.5690    -0.3270 ca         1 3UH      -0.129000
     29 C45         -3.0310     1.9590     0.3550 ca         1 3UH      -0.055000
     30 C47         -3.6170     0.7020     0.3600 ca         1 3UH      -0.246000
     31 H1          -5.0850    -1.4660     1.2560 h1         1 3UH       0.021200
     32 H2          -5.2300    -1.4030    -0.5010 h1         1 3UH       0.021200
     33 H4           0.0910    -0.8140    -1.7910 hn         1 3UH       0.314500
     34 H5           1.2370    -3.2410    -0.5490 h1         1 3UH       0.073200
     35 H6           1.2260    -2.9040    -2.2660 h1         1 3UH       0.073200
     36 H7           2.1040    -0.4570     0.4220 ha         1 3UH       0.181000
     37 H8           6.1780    -0.1170    -0.8890 ha         1 3UH       0.162000
     38 H9           5.7820    -1.9070    -2.5340 ha         1 3UH       0.139000
     39 H10          3.5640    -2.9530    -2.7280 ha         1 3UH       0.139000
     40 H11          0.1840     1.0690    -0.0790 ha         1 3UH       0.121000
     41 H12          0.7650     2.8210     1.2190 ha         1 3UH       0.136000
     42 H13          1.8110     5.0350     1.2180 ha         1 3UH       0.124000
     43 H14          0.6220     6.9810     0.2500 ha         1 3UH       0.120000
     44 H15         -1.6260     6.6670    -0.7430 ha         1 3UH       0.124000
     45 H16         -2.6630     4.4470    -0.7830 ha         1 3UH       0.136000
     46 H17         -3.6710     2.8220     0.4860 ha         1 3UH       0.120000
     47 H18         -4.6900     0.6340     0.4740 ha         1 3UH       0.147000
@<TRIPOS>BOND
     1     1     2 1   
     2     1     6 1   
     3     2     3 1   
     4     2    31 1   
     5     2    32 1   
     6     3     4 1   
     7     3     5 1   
     8     6     7 ar  
     9     6    30 ar  
    10     7     8 1   
    11     7    21 ar  
    12     8     9 1   
    13     8    20 2   
    14     9    10 1   
    15     9    33 1   
    16    10    11 1   
    17    10    34 1   
    18    10    35 1   
    19    11    12 ar  
    20    11    19 ar  
    21    12    13 ar  
    22    12    36 1   
    23    13    14 1   
    24    13    17 ar  
    25    14    15 1   
    26    14    16 1   
    27    17    18 ar  
    28    17    37 1   
    29    18    19 ar  
    30    18    38 1   
    31    19    39 1   
    32    21    22 ar  
    33    21    40 1   
    34    22    23 1   
    35    22    29 ar  
    36    23    24 ar  
    37    23    28 ar  
    38    24    25 ar  
    39    24    41 1   
    40    25    26 ar  
    41    25    42 1   
    42    26    27 ar  
    43    26    43 1   
    44    27    28 ar  
    45    27    44 1   
    46    28    45 1   
    47    29    30 ar  
    48    29    46 1   
    49    30    47 1   
@<TRIPOS>SUBSTRUCTURE
     1 3UH         1 TEMP              0 ****  ****    0 ROOT
