@<TRIPOS>MOLECULE
3UI
   56    58     1     0     0
SMALL
abcg2


@<TRIPOS>ATOM
      1 C5         -14.7580   -10.7080   -21.2410 c6         1 3UI       0.124800
      2 C6         -15.3100   -10.8450   -19.8280 c6         1 3UI       0.207800
      3 C11        -11.7210    -9.1340   -17.1100 ca         1 3UI       0.121100
      4 C8         -13.6390   -10.1550   -18.1550 ca         1 3UI       0.329000
      5 C9         -14.4190    -9.1430   -17.5660 ca         1 3UI      -0.143000
      6 C10        -12.2590   -10.1270   -17.9090 ca         1 3UI      -0.160000
      7 C13         -9.5500    -8.4430   -17.6320 c3         1 3UI       0.515000
      8 N3         -14.0650   -11.9290   -21.6110 n7         1 3UI      -0.861400
      9 C1         -13.5050   -12.3370   -19.2990 c6         1 3UI       0.207800
     10 C17        -12.4800    -8.1390   -16.5320 ca         1 3UI      -0.098000
     11 C18        -13.8530    -8.1660   -16.7640 ca         1 3UI      -0.108600
     12 C19        -14.6790    -7.1230   -16.0790 c          1 3UI       0.611700
     13 C2         -12.9580   -12.2060   -20.7120 c6         1 3UI       0.124800
     14 C24        -16.3300    -6.4920   -13.5520 ca         1 3UI       0.006700
     15 C25        -15.8060    -7.6390   -12.9650 ca         1 3UI      -0.127000
     16 C26        -15.4000    -7.6410   -11.6420 ca         1 3UI       0.169000
     17 C28        -15.4980    -6.5060   -10.8560 ca         1 3UI      -0.121000
     18 C29        -16.0240    -5.3610   -11.4230 ca         1 3UI      -0.014000
     19 C30        -16.4390    -5.3530   -12.7510 ca         1 3UI      -0.238500
     20 C34        -15.8330    -3.1120   -14.3700 c3         1 3UI      -0.282400
     21 C35        -14.5730    -2.7870   -13.5940 c3         1 3UI      -0.067100
     22 F14         -8.3040    -8.6500   -17.2350 f          1 3UI      -0.108000
     23 F15         -9.6410    -8.7710   -18.9220 f          1 3UI      -0.108000
     24 F16         -9.8000    -7.1340   -17.5500 f          1 3UI      -0.108000
     25 N21        -15.9460    -7.4670   -15.7760 ns         1 3UI      -0.503900
     26 N7         -14.2380   -11.1520   -18.8920 nh         1 3UI      -0.812400
     27 O20        -14.2130    -6.0340   -15.7820 o          1 3UI      -0.591100
     28 O32        -18.2910    -4.1090   -14.1780 o          1 3UI      -0.527000
     29 O33        -17.3160    -2.9490   -12.1840 o          1 3UI      -0.527000
     30 S31        -17.1260    -3.8170   -13.3450 sy         1 3UI       1.028500
     31 CL2        -14.7590    -9.0930   -10.9630 cl         1 3UI      -0.186000
     32 H1         -14.1100    -9.8170   -21.2780 h1         1 3UI       0.041950
     33 H2         -15.5830   -10.5380   -21.9350 h1         1 3UI       0.041950
     34 H3         -15.8230    -9.9300   -19.5430 h1         1 3UI       0.062450
     35 H4         -16.0460   -11.6530   -19.7970 h1         1 3UI       0.062450
     36 H5         -15.4870    -9.1430   -17.7340 ha         1 3UI       0.119000
     37 H6         -11.5950   -10.8640   -18.3380 ha         1 3UI       0.136000
     38 H7         -13.7250   -11.8550   -22.5610 hn         1 3UI       0.419000
     39 H9         -14.2030   -13.1800   -19.2700 h1         1 3UI       0.062450
     40 H10        -12.7160   -12.5660   -18.5840 h1         1 3UI       0.062450
     41 H11        -12.0350    -7.3920   -15.8900 ha         1 3UI       0.157000
     42 H12        -12.4830   -13.1440   -21.0050 h1         1 3UI       0.041950
     43 H13        -12.1810   -11.4260   -20.7330 h1         1 3UI       0.041950
     44 H14        -16.8280    -5.6180   -15.4860 h1         1 3UI       0.078700
     45 H15        -17.7960    -6.9880   -15.0260 h1         1 3UI       0.078700
     46 H16        -15.7110    -8.5450   -13.5480 ha         1 3UI       0.127000
     47 H17        -15.1750    -6.5080    -9.8240 ha         1 3UI       0.138000
     48 H18        -16.1050    -4.4680   -10.8200 ha         1 3UI       0.151000
     49 H19        -15.6340    -3.8210   -15.1740 h1         1 3UI       0.106200
     50 H20        -16.2870    -2.2200   -14.8080 h1         1 3UI       0.106200
     51 H21        -13.8450    -2.3510   -14.2770 hc         1 3UI       0.051367
     52 H22        -14.7590    -2.0650   -12.8010 hc         1 3UI       0.051367
     53 H23        -14.1210    -3.6780   -13.1600 hc         1 3UI       0.051367
     54 H24        -16.2610    -8.4110   -15.9200 hn         1 3UI       0.324500
     55 O12        -10.3530    -9.1780   -16.8540 os         1 3UI      -0.404100
     56 C23        -16.7820    -6.5870   -15.0000 c3         1 3UI       0.138300
@<TRIPOS>BOND
     1     1     2 1   
     2     1     8 1   
     3     1    32 1   
     4     1    33 1   
     5     2    26 1   
     6     2    34 1   
     7     2    35 1   
     8     3     6 ar  
     9     3    10 ar  
    10     3    55 1   
    11     4     5 ar  
    12     4     6 ar  
    13     4    26 1   
    14     5    11 ar  
    15     5    36 1   
    16     6    37 1   
    17     7    22 1   
    18     7    23 1   
    19     7    24 1   
    20     7    55 1   
    21     8    13 1   
    22     8    38 1   
    23     9    13 1   
    24     9    26 1   
    25     9    39 1   
    26     9    40 1   
    27    10    11 ar  
    28    10    41 1   
    29    11    12 1   
    30    12    25 1   
    31    12    27 2   
    32    13    42 1   
    33    13    43 1   
    34    14    15 ar  
    35    14    19 ar  
    36    14    56 1   
    37    15    16 ar  
    38    15    46 1   
    39    16    17 ar  
    40    16    31 1   
    41    17    18 ar  
    42    17    47 1   
    43    18    19 ar  
    44    18    48 1   
    45    19    30 1   
    46    20    21 1   
    47    20    30 1   
    48    20    49 1   
    49    20    50 1   
    50    21    51 1   
    51    21    52 1   
    52    21    53 1   
    53    25    54 1   
    54    25    56 1   
    55    28    30 2   
    56    29    30 2   
    57    44    56 1   
    58    45    56 1   
@<TRIPOS>SUBSTRUCTURE
     1 3UI         1 TEMP              0 ****  ****    0 ROOT
