@<TRIPOS>MOLECULE
3UI
   56    58     1     0     0
SMALL
No Charge or Current Charge


@<TRIPOS>ATOM
      1 C5         -15.4390   -11.8560   -20.8530 c6         1 3UI       0.124800
      2 C6         -15.2000   -10.8280   -19.6960 c6         1 3UI       0.207800
      3 C11        -11.2470    -8.3930   -17.9990 ca         1 3UI       0.121100
      4 C8         -13.2180    -9.7240   -18.5430 ca         1 3UI       0.329000
      5 C9         -14.0140    -8.8410   -17.7870 ca         1 3UI      -0.143000
      6 C10        -11.8390    -9.4870   -18.6410 ca         1 3UI      -0.160000
      7 C13         -9.1120    -7.1710   -17.5620 c3         1 3UI       0.515000
      8 N3         -14.9760   -13.2350   -20.5170 n7         1 3UI      -0.861400
      9 C1         -13.2730   -12.2220   -18.9080 c6         1 3UI       0.207800
     10 C17        -12.0510    -7.5130   -17.2410 ca         1 3UI      -0.098000
     11 C18        -13.4440    -7.7250   -17.1260 ca         1 3UI      -0.108600
     12 C19        -14.2750    -6.7600   -16.2990 c          1 3UI       0.611700
     13 C2         -13.5500   -13.2240   -20.0800 c6         1 3UI       0.124800
     14 C24        -16.5130    -6.4750   -13.9400 ca         1 3UI       0.006700
     15 C25        -16.2730    -7.8040   -13.5200 ca         1 3UI      -0.127000
     16 C26        -16.1820    -8.1320   -12.1620 ca         1 3UI       0.169000
     17 C28        -16.3360    -7.1400   -11.1890 ca         1 3UI      -0.121000
     18 C29        -16.5940    -5.8170   -11.5760 ca         1 3UI      -0.014000
     19 C30        -16.6950    -5.4680   -12.9440 ca         1 3UI      -0.238500
     20 C34        -15.4570    -3.0520   -13.8550 c3         1 3UI      -0.282400
     21 C35        -14.3440    -3.2020   -12.7900 c3         1 3UI      -0.067100
     22 F14         -7.8070    -7.2870   -17.8900 f          1 3UI      -0.108000
     23 F15         -9.5180    -5.9540   -17.9920 f          1 3UI      -0.108000
     24 F16         -9.1810    -7.1820   -16.2110 f          1 3UI      -0.108000
     25 N21        -15.6300    -7.0030   -16.2340 ns         1 3UI      -0.503900
     26 N7         -13.7810   -10.8400   -19.2050 nh         1 3UI      -0.812400
     27 O20        -13.7760    -5.8110   -15.7100 o          1 3UI      -0.591100
     28 O32        -17.9340    -3.6740   -14.5120 o          1 3UI      -0.527000
     29 O33        -17.4290    -3.0280   -12.0980 o          1 3UI      -0.527000
     30 S31        -17.0570    -3.7270   -13.3360 sy         1 3UI       1.028500
     31 Cl2        -15.8700    -9.7940   -11.6790 cl         1 3UI      -0.186000
     32 H1         -14.9020   -11.5060   -21.7470 h1         1 3UI       0.041950
     33 H2         -16.5100   -11.8780   -21.1040 h1         1 3UI       0.041950
     34 H3         -15.4700    -9.8270   -20.0640 h1         1 3UI       0.062450
     35 H4         -15.8840   -11.0680   -18.8680 h1         1 3UI       0.062450
     36 H5         -15.0760    -9.0430   -17.7080 ha         1 3UI       0.119000
     37 H6         -11.2200   -10.1540   -19.2310 ha         1 3UI       0.136000
     38 H7         -15.0710   -13.8350   -21.3470 hn         1 3UI       0.419000
     39 H9         -13.7580   -12.6050   -17.9980 h1         1 3UI       0.062450
     40 H10        -12.1910   -12.2110   -18.7130 h1         1 3UI       0.062450
     41 H11        -11.6120    -6.6590   -16.7350 ha         1 3UI       0.157000
     42 H12        -13.2510   -14.2360   -19.7700 h1         1 3UI       0.041950
     43 H13        -12.9150   -12.9450   -20.9340 h1         1 3UI       0.041950
     44 H14        -16.3660    -5.1500   -15.6800 h1         1 3UI       0.078700
     45 H15        -17.5960    -6.4110   -15.8090 h1         1 3UI       0.078700
     46 H16        -16.1530    -8.6000   -14.2510 ha         1 3UI       0.127000
     47 H17        -16.2620    -7.3970   -10.1360 ha         1 3UI       0.138000
     48 H18        -16.7170    -5.0660   -10.7970 ha         1 3UI       0.151000
     49 H19        -15.1650    -3.5680   -14.7750 h1         1 3UI       0.106200
     50 H20        -15.6250    -1.9940   -14.0820 h1         1 3UI       0.106200
     51 H21        -13.4110    -2.7520   -13.1500 hc         1 3UI       0.051367
     52 H22        -14.6210    -2.7020   -11.8540 hc         1 3UI       0.051367
     53 H23        -14.1440    -4.2590   -12.5730 hc         1 3UI       0.051367
     54 H24        -15.9820    -7.7940   -16.7570 hn         1 3UI       0.324500
     55 O12         -9.8800    -8.2390   -18.1530 os         1 3UI      -0.404100
     56 C23        -16.5790    -6.1990   -15.4530 c3         1 3UI       0.138300
@<TRIPOS>BOND
     1     1     2 1   
     2     1     8 1   
     3     1    32 1   
     4     1    33 1   
     5     2    26 1   
     6     2    34 1   
     7     2    35 1   
     8     3     6 ar  
     9     3    10 ar  
    10     3    55 1   
    11     4     5 ar  
    12     4     6 ar  
    13     4    26 1   
    14     5    11 ar  
    15     5    36 1   
    16     6    37 1   
    17     7    22 1   
    18     7    23 1   
    19     7    24 1   
    20     7    55 1   
    21     8    13 1   
    22     8    38 1   
    23     9    13 1   
    24     9    26 1   
    25     9    39 1   
    26     9    40 1   
    27    10    11 ar  
    28    10    41 1   
    29    11    12 1   
    30    12    25 1   
    31    12    27 2   
    32    13    42 1   
    33    13    43 1   
    34    14    15 ar  
    35    14    19 ar  
    36    14    56 1   
    37    15    16 ar  
    38    15    46 1   
    39    16    17 ar  
    40    16    31 1   
    41    17    18 ar  
    42    17    47 1   
    43    18    19 ar  
    44    18    48 1   
    45    19    30 1   
    46    20    21 1   
    47    20    30 1   
    48    20    49 1   
    49    20    50 1   
    50    21    51 1   
    51    21    52 1   
    52    21    53 1   
    53    25    54 1   
    54    25    56 1   
    55    28    30 2   
    56    29    30 2   
    57    44    56 1   
    58    45    56 1   
@<TRIPOS>SUBSTRUCTURE
     1 3UI         1 TEMP              0 ****  ****    0 ROOT
