@<TRIPOS>MOLECULE
3UJ
   85    90     1     0     0
SMALL
abcg2


@<TRIPOS>ATOM
      1 C7           0.6900     4.6990     0.0820 ca         1 3UJ      -0.078000
      2 C6          -8.6350    -2.8200    -2.2070 ca         1 3UJ      -0.060000
      3 C5          -1.4820     5.6960     0.0610 ca         1 3UJ      -0.080000
      4 C4          -6.5590    -4.0710    -2.2110 ca         1 3UJ      -0.094000
      5 C3          -0.1130     5.8130    -0.1130 ca         1 3UJ      -0.129000
      6 C2          -7.8340    -3.8110    -2.7400 ca         1 3UJ      -0.143000
      7 C8          -6.0640    -3.3500    -1.1400 ca         1 3UJ      -0.129000
      8 C9          -2.0410     4.4720     0.4020 ca         1 3UJ      -0.159000
      9 C10          0.9850     1.6130     1.9030 ca         1 3UJ      -0.026000
     10 C11          2.8920     0.2690     1.2320 ca         1 3UJ      -0.054000
     11 C12          2.0700     2.0180    -0.1920 ca         1 3UJ      -0.042000
     12 C13         -7.7550    -0.6870     0.5770 cc         1 3UJ      -0.161100
     13 C14          1.8870     0.5830     2.1460 ca         1 3UJ      -0.034000
     14 C15         -8.1580    -2.0710    -1.1250 ca         1 3UJ      -0.097800
     15 C16          0.1510     3.4700     0.4500 cp         1 3UJ      -0.064000
     16 C17          1.0710     2.3430     0.7200 cp         1 3UJ      -0.037000
     17 C18          2.9890     1.0020     0.0600 ca         1 3UJ      -0.158600
     18 C19         -8.7050    -0.9970    -0.3520 cd         1 3UJ      -0.134400
     19 C20         -6.8760    -2.3510    -0.6030 ca         1 3UJ      -0.043200
     20 C21         -1.2450     3.3420     0.5940 ca         1 3UJ       0.289000
     21 C22          4.0250     0.7220    -0.9870 c          1 3UJ       0.611700
     22 C23         11.5340    -3.2510    -1.1580 c5         1 3UJ      -0.078900
     23 C24         11.2710    -2.7420     0.2760 c5         1 3UJ      -0.078900
     24 C25         10.5470    -2.4620    -2.0160 c5         1 3UJ       0.155800
     25 C26         10.1090    -1.7560     0.1240 c5         1 3UJ       0.155800
     26 C27         -1.6970     1.0450    -0.0630 c6         1 3UJ       0.154300
     27 C28         -3.0930     2.0920     1.5830 c6         1 3UJ       0.154300
     28 C29         -1.9400    -0.3040     0.5980 c6         1 3UJ       0.167300
     29 C30         -3.3190     0.7310     2.2350 c6         1 3UJ       0.167300
     30 C31        -10.0410    -0.3600    -0.5350 c3         1 3UJ      -0.014900
     31 C32          7.3090    -0.9870    -0.7420 c3         1 3UJ      -0.096400
     32 C33         -5.4320    -1.3790     1.1970 c3         1 3UJ       0.076600
     33 C34          8.5160    -1.2130    -1.6430 c3         1 3UJ       0.172800
     34 N37          1.6820    -0.7830     4.3250 n1         1 3UJ      -0.448000
     35 N38         -6.6570    -1.5010     0.4440 na         1 3UJ      -0.091700
     36 N39         -1.7910     2.0990     0.9410 nh         1 3UJ      -0.793400
     37 N40          9.4530    -2.1710    -1.1050 n3         1 3UJ      -0.714600
     38 N41         -3.2060    -0.3820     1.3060 n3         1 3UJ      -0.729600
     39 N42          5.1670     0.1710    -0.5540 ns         1 3UJ      -0.498900
     40 O43          3.8160     0.9930    -2.1610 o          1 3UJ      -0.598100
     41 H1           1.7650     4.7940    -0.0160 ha         1 3UJ       0.117000
     42 H2          -9.6180    -2.6240    -2.6190 ha         1 3UJ       0.113000
     43 H3          -2.1270     6.5530    -0.0810 ha         1 3UJ       0.115000
     44 H4          -5.9510    -4.8510    -2.6510 ha         1 3UJ       0.108000
     45 H5           0.3300     6.7620    -0.3830 ha         1 3UJ       0.119000
     46 H6          -8.1890    -4.3960    -3.5790 ha         1 3UJ       0.109000
     47 H7          -5.0790    -3.5590    -0.7430 ha         1 3UJ       0.114000
     48 H8          -3.1160     4.3960     0.5040 ha         1 3UJ       0.115000
     49 H9           0.2200     1.8400     2.6300 ha         1 3UJ       0.143000
     50 H10          3.5620    -0.5540     1.4430 ha         1 3UJ       0.126000
     51 H11          2.1330     2.5650    -1.1230 ha         1 3UJ       0.142000
     52 H12         -7.7770     0.0680     1.3480 h4         1 3UJ       0.207000
     53 H13         12.5620    -3.0890    -1.4800 hc         1 3UJ       0.047450
     54 H14         11.3360    -4.3210    -1.2310 hc         1 3UJ       0.047450
     55 H15         10.9990    -3.5660     0.9360 hc         1 3UJ       0.047450
     56 H16         12.1430    -2.2570     0.7130 hc         1 3UJ       0.047450
     57 H17         11.0220    -1.5360    -2.3840 h1         1 3UJ       0.034950
     58 H18         10.1930    -3.0150    -2.8890 h1         1 3UJ       0.034950
     59 H19          9.4240    -1.7810     0.9730 h1         1 3UJ       0.034950
     60 H20         10.4910    -0.7230     0.0430 h1         1 3UJ       0.034950
     61 H21         -0.7100     1.0470    -0.5250 h1         1 3UJ       0.044200
     62 H22         -2.4290     1.2120    -0.8690 h1         1 3UJ       0.044200
     63 H23         -3.9040     2.3070     0.8690 h1         1 3UJ       0.044200
     64 H24         -3.1260     2.8640     2.3530 h1         1 3UJ       0.044200
     65 H25         -1.8900    -1.0990    -0.1480 h1         1 3UJ       0.061200
     66 H26         -1.1340    -0.4850     1.3170 h1         1 3UJ       0.061200
     67 H27         -2.5760     0.5990     3.0270 h1         1 3UJ       0.061200
     68 H28         -4.2990     0.7180     2.7150 h1         1 3UJ       0.061200
     69 H29        -10.1410     0.0870    -1.5260 hc         1 3UJ       0.036367
     70 H30        -10.8510    -1.0850    -0.4310 hc         1 3UJ       0.036367
     71 H31        -10.2090     0.4280     0.1990 hc         1 3UJ       0.036367
     72 H32          6.8660    -1.9500    -0.4740 hc         1 3UJ       0.051700
     73 H33          7.6170    -0.5020     0.1890 hc         1 3UJ       0.051700
     74 H34         -5.0400    -2.3720     1.4220 h1         1 3UJ       0.064200
     75 H35         -5.6770    -0.9150     2.1540 h1         1 3UJ       0.064200
     76 H36          8.1680    -1.5900    -2.6100 h1         1 3UJ       0.032700
     77 H37          9.0050    -0.2420    -1.8440 h1         1 3UJ       0.032700
     78 H38         -4.0740    -1.0950    -0.4440 h1         1 3UJ       0.044700
     79 H39         -4.8230     0.3840     0.1210 h1         1 3UJ       0.044700
     80 H40          6.7370     0.8110    -1.7870 h1         1 3UJ       0.053200
     81 H41          5.8980    -0.6350    -2.3270 h1         1 3UJ       0.053200
     82 H44          5.3480     0.1270     0.4360 hn         1 3UJ       0.315500
     83 C1           1.7750    -0.1730     3.3520 cg         1 3UJ       0.322000
     84 C35         -4.3720    -0.5590     0.4610 c3         1 3UJ       0.145800
     85 C36          6.2740    -0.1200    -1.4420 c3         1 3UJ       0.099000
@<TRIPOS>BOND
     1     1     5 ar  
     2     1    15 ar  
     3     1    41 1   
     4     2     6 ar  
     5     2    14 ar  
     6     2    42 1   
     7     3     5 ar  
     8     3     8 ar  
     9     3    43 1   
    10     4     6 ar  
    11     4     7 ar  
    12     4    44 1   
    13     5    45 1   
    14     6    46 1   
    15     7    19 ar  
    16     7    47 1   
    17     8    20 ar  
    18     8    48 1   
    19     9    13 ar  
    20     9    16 ar  
    21     9    49 1   
    22    10    13 ar  
    23    10    17 ar  
    24    10    50 1   
    25    11    16 ar  
    26    11    17 ar  
    27    11    51 1   
    28    12    18 2   
    29    12    35 1   
    30    12    52 1   
    31    13    83 1   
    32    14    18 1   
    33    14    19 ar  
    34    15    16 1   
    35    15    20 ar  
    36    17    21 1   
    37    18    30 1   
    38    19    35 1   
    39    20    36 1   
    40    21    39 1   
    41    21    40 2   
    42    22    23 1   
    43    22    24 1   
    44    22    53 1   
    45    22    54 1   
    46    23    25 1   
    47    23    55 1   
    48    23    56 1   
    49    24    37 1   
    50    24    57 1   
    51    24    58 1   
    52    25    37 1   
    53    25    59 1   
    54    25    60 1   
    55    26    28 1   
    56    26    36 1   
    57    26    61 1   
    58    26    62 1   
    59    27    29 1   
    60    27    36 1   
    61    27    63 1   
    62    27    64 1   
    63    28    38 1   
    64    28    65 1   
    65    28    66 1   
    66    29    38 1   
    67    29    67 1   
    68    29    68 1   
    69    30    69 1   
    70    30    70 1   
    71    30    71 1   
    72    31    33 1   
    73    31    72 1   
    74    31    73 1   
    75    31    85 1   
    76    32    35 1   
    77    32    74 1   
    78    32    75 1   
    79    32    84 1   
    80    33    37 1   
    81    33    76 1   
    82    33    77 1   
    83    34    83 3   
    84    38    84 1   
    85    39    82 1   
    86    39    85 1   
    87    78    84 1   
    88    79    84 1   
    89    80    85 1   
    90    81    85 1   
@<TRIPOS>SUBSTRUCTURE
     1 3UJ         1 TEMP              0 ****  ****    0 ROOT
