@<TRIPOS>MOLECULE
3UJ
   85    90     1     0     0
SMALL
No Charge or Current Charge


@<TRIPOS>ATOM
      1 C7           0.4340     5.1420     0.4210 ca         1 3UJ      -0.078000
      2 C6          -8.2680    -3.3740    -2.1420 ca         1 3UJ      -0.060000
      3 C5          -1.8640     5.9100     0.3220 ca         1 3UJ      -0.080000
      4 C4          -6.3300    -4.6730    -1.3810 ca         1 3UJ      -0.094000
      5 C3          -0.4920     6.1790     0.2380 ca         1 3UJ      -0.129000
      6 C2          -7.4860    -4.5480    -2.1900 ca         1 3UJ      -0.143000
      7 C8          -5.9450    -3.6250    -0.5160 ca         1 3UJ      -0.129000
      8 C9          -2.3070     4.6040     0.5840 ca         1 3UJ      -0.159000
      9 C10          0.9670     1.8790     2.0210 ca         1 3UJ      -0.026000
     10 C11          3.0010     0.7400     1.3150 ca         1 3UJ      -0.054000
     11 C12          2.1340     2.6090     0.0210 ca         1 3UJ      -0.042000
     12 C13         -7.6430    -0.4010    -0.0480 cc         1 3UJ      -0.161100
     13 C14          1.9300     0.8760     2.2190 ca         1 3UJ      -0.034000
     14 C15         -7.8570    -2.3550    -1.2730 ca         1 3UJ      -0.097800
     15 C16          0.0110     3.8160     0.6920 cp         1 3UJ      -0.064000
     16 C17          1.0460     2.7560     0.9150 cp         1 3UJ      -0.037000
     17 C18          3.1170     1.6100     0.2030 ca         1 3UJ      -0.158600
     18 C19         -8.4230    -1.0540    -0.9950 cd         1 3UJ      -0.134400
     19 C20         -6.7420    -2.4690    -0.4880 ca         1 3UJ      -0.043200
     20 C21         -1.3910     3.5460     0.7690 ca         1 3UJ       0.289000
     21 C22          4.2530     1.5010    -0.7940 c          1 3UJ       0.611700
     22 C23         11.0170    -3.8560    -1.4850 c5         1 3UJ      -0.078900
     23 C24         10.7620    -3.5070     0.0160 c5         1 3UJ      -0.078900
     24 C25         10.3680    -2.6760    -2.2510 c5         1 3UJ       0.155800
     25 C26          9.9120    -2.2090    -0.0370 c5         1 3UJ       0.155800
     26 C27         -1.6550     1.1530    -0.0150 c6         1 3UJ       0.154300
     27 C28         -3.1060     2.0030     1.8460 c6         1 3UJ       0.154300
     28 C29         -1.7300    -0.2740     0.6250 c6         1 3UJ       0.167300
     29 C30         -3.1340     0.5520     2.4330 c6         1 3UJ       0.167300
     30 C31         -9.6660    -0.4960    -1.6370 c3         1 3UJ      -0.014900
     31 C32          7.2120    -0.8900    -0.8940 c3         1 3UJ      -0.096400
     32 C33         -5.4880    -1.0910     1.1930 c3         1 3UJ       0.076600
     33 C34          8.4400    -1.1680    -1.7870 c3         1 3UJ       0.172800
     34 N37          1.7340    -0.7320     4.2580 n1         1 3UJ      -0.448000
     35 N38         -6.6030    -1.3020     0.2520 na         1 3UJ      -0.091700
     36 N39         -1.9050     2.2420     0.9840 nh         1 3UJ      -0.793400
     37 N40          9.2470    -2.3300    -1.3540 n3         1 3UJ      -0.714600
     38 N41         -3.0010    -0.5120     1.3820 n3         1 3UJ      -0.729600
     39 N42          5.1830     0.5080    -0.5750 ns         1 3UJ      -0.498900
     40 O43          4.3510     2.2540    -1.7540 o          1 3UJ      -0.598100
     41 H1           1.4970     5.3690     0.3680 ha         1 3UJ       0.117000
     42 H2          -9.1580    -3.2660    -2.7580 ha         1 3UJ       0.113000
     43 H3          -2.5860     6.7120     0.1780 ha         1 3UJ       0.115000
     44 H4          -5.7340    -5.5820    -1.4260 ha         1 3UJ       0.108000
     45 H5          -0.1460     7.1900     0.0350 ha         1 3UJ       0.119000
     46 H6          -7.7730    -5.3620    -2.8520 ha         1 3UJ       0.109000
     47 H7          -5.0570    -3.7180     0.1040 ha         1 3UJ       0.114000
     48 H8          -3.3740     4.4120     0.6230 ha         1 3UJ       0.115000
     49 H9           0.1450     1.9840     2.7260 ha         1 3UJ       0.143000
     50 H10          3.7320    -0.0450     1.4930 ha         1 3UJ       0.126000
     51 H11          2.1990     3.2780    -0.8340 ha         1 3UJ       0.142000
     52 H12         -7.7360     0.5780     0.4100 h4         1 3UJ       0.207000
     53 H13         12.0830    -3.9570    -1.7180 hc         1 3UJ       0.047450
     54 H14         10.5360    -4.8050    -1.7500 hc         1 3UJ       0.047450
     55 H15         10.2150    -4.3150     0.5160 hc         1 3UJ       0.047450
     56 H16         11.6930    -3.3550     0.5740 hc         1 3UJ       0.047450
     57 H17         11.0700    -1.8360    -2.3570 h1         1 3UJ       0.034950
     58 H18         10.0310    -2.9700    -3.2540 h1         1 3UJ       0.034950
     59 H19          9.2000    -2.1550     0.7970 h1         1 3UJ       0.034950
     60 H20         10.5530    -1.3160     0.0030 h1         1 3UJ       0.034950
     61 H21         -0.6660     1.2720    -0.4790 h1         1 3UJ       0.044200
     62 H22         -2.3940     1.2220    -0.8260 h1         1 3UJ       0.044200
     63 H23         -4.0250     2.1740     1.2650 h1         1 3UJ       0.044200
     64 H24         -3.1150     2.7150     2.6840 h1         1 3UJ       0.044200
     65 H25         -1.6020    -1.0270    -0.1660 h1         1 3UJ       0.061200
     66 H26         -0.8700    -0.3880     1.3020 h1         1 3UJ       0.061200
     67 H27         -2.3010     0.4650     3.1460 h1         1 3UJ       0.061200
     68 H28         -4.0510     0.4200     3.0230 h1         1 3UJ       0.061200
     69 H29         -9.5470    -0.4280    -2.7250 hc         1 3UJ       0.036367
     70 H30        -10.5330    -1.1350    -1.4320 hc         1 3UJ       0.036367
     71 H31         -9.8930     0.5090    -1.2610 hc         1 3UJ       0.036367
     72 H32          6.6070    -1.8010    -0.8240 hc         1 3UJ       0.051700
     73 H33          7.5440    -0.6380     0.1200 hc         1 3UJ       0.051700
     74 H34         -5.3080    -2.0190     1.7470 h1         1 3UJ       0.064200
     75 H35         -5.7940    -0.3250     1.9150 h1         1 3UJ       0.064200
     76 H36          8.0810    -1.3430    -2.8100 h1         1 3UJ       0.032700
     77 H37          9.0670    -0.2660    -1.8160 h1         1 3UJ       0.032700
     78 H38         -3.9630    -1.3980    -0.2850 h1         1 3UJ       0.044700
     79 H39         -4.3840     0.2930    -0.0390 h1         1 3UJ       0.044700
     80 H40          6.9410     1.1770    -1.4940 h1         1 3UJ       0.053200
     81 H41          5.9870     0.0100    -2.4430 h1         1 3UJ       0.053200
     82 H44          5.0470    -0.0820     0.2350 hn         1 3UJ       0.315500
     83 C1           1.8170    -0.0100     3.3450 cg         1 3UJ       0.322000
     84 C35         -4.1850    -0.6500     0.4870 c3         1 3UJ       0.145800
     85 C36          6.3420     0.2590    -1.4330 c3         1 3UJ       0.099000
@<TRIPOS>BOND
     1     1     5 ar  
     2     1    15 ar  
     3     1    41 1   
     4     2     6 ar  
     5     2    14 ar  
     6     2    42 1   
     7     3     5 ar  
     8     3     8 ar  
     9     3    43 1   
    10     4     6 ar  
    11     4     7 ar  
    12     4    44 1   
    13     5    45 1   
    14     6    46 1   
    15     7    19 ar  
    16     7    47 1   
    17     8    20 ar  
    18     8    48 1   
    19     9    13 ar  
    20     9    16 ar  
    21     9    49 1   
    22    10    13 ar  
    23    10    17 ar  
    24    10    50 1   
    25    11    16 ar  
    26    11    17 ar  
    27    11    51 1   
    28    12    18 2   
    29    12    35 1   
    30    12    52 1   
    31    13    83 1   
    32    14    18 1   
    33    14    19 ar  
    34    15    16 1   
    35    15    20 ar  
    36    17    21 1   
    37    18    30 1   
    38    19    35 1   
    39    20    36 1   
    40    21    39 1   
    41    21    40 2   
    42    22    23 1   
    43    22    24 1   
    44    22    53 1   
    45    22    54 1   
    46    23    25 1   
    47    23    55 1   
    48    23    56 1   
    49    24    37 1   
    50    24    57 1   
    51    24    58 1   
    52    25    37 1   
    53    25    59 1   
    54    25    60 1   
    55    26    28 1   
    56    26    36 1   
    57    26    61 1   
    58    26    62 1   
    59    27    29 1   
    60    27    36 1   
    61    27    63 1   
    62    27    64 1   
    63    28    38 1   
    64    28    65 1   
    65    28    66 1   
    66    29    38 1   
    67    29    67 1   
    68    29    68 1   
    69    30    69 1   
    70    30    70 1   
    71    30    71 1   
    72    31    33 1   
    73    31    72 1   
    74    31    73 1   
    75    31    85 1   
    76    32    35 1   
    77    32    74 1   
    78    32    75 1   
    79    32    84 1   
    80    33    37 1   
    81    33    76 1   
    82    33    77 1   
    83    34    83 3   
    84    38    84 1   
    85    39    82 1   
    86    39    85 1   
    87    78    84 1   
    88    79    84 1   
    89    80    85 1   
    90    81    85 1   
@<TRIPOS>SUBSTRUCTURE
     1 3UJ         1 TEMP              0 ****  ****    0 ROOT
