@<TRIPOS>MOLECULE
3UL
   43    45     1     0     0
SMALL
No Charge or Current Charge


@<TRIPOS>ATOM
      1 C1           2.8230    -1.3540     0.0620 ca         1 3UL      -0.113600
      2 C2           3.6720    -2.4710     0.2360 ca         1 3UL      -0.127500
      3 C3           5.0660    -2.3100     0.1590 ca         1 3UL       0.328900
      4 C4           4.8590    -0.0430    -0.2520 ca         1 3UL       0.328900
      5 C5           3.4550    -0.1110    -0.1920 ca         1 3UL      -0.127500
      6 C6          -0.8050    -0.0540     0.0160 ca         1 3UL      -0.018000
      7 C8          -3.1760    -0.6950    -0.0040 ca         1 3UL      -0.175300
      8 C9          -4.2520    -1.7890    -0.0130 c3         1 3UL       0.357300
      9 C12         -1.1760     1.3080    -0.0160 ca         1 3UL       0.213000
     10 F2          -4.4390    -2.2830    -1.2580 f          1 3UL      -0.112333
     11 F           -3.9220    -2.8330     0.7810 f          1 3UL      -0.112333
     12 F1          -5.4550    -1.3420     0.4180 f          1 3UL      -0.112333
     13 C7          -1.8090    -1.0490     0.0160 ca         1 3UL      -0.087000
     14 C10         -3.5300     0.6700    -0.0420 ca         1 3UL      -0.079000
     15 C11         -2.5350     1.6600    -0.0460 ca         1 3UL      -0.121000
     16 N2          -0.1820     2.3140    -0.0120 nh         1 3UL      -0.800400
     17 C17         -0.1080     3.2650    -1.1540 c6         1 3UL       0.181800
     18 C16          1.3110     3.8740    -1.2710 c6         1 3UL      -0.078400
     19 C15          1.7440     4.5420     0.0570 c6         1 3UL      -0.076400
     20 C14          1.6150     3.5400     1.2280 c6         1 3UL      -0.078400
     21 C13          0.1940     2.9270     1.2910 c6         1 3UL       0.181800
     22 N1           0.5880    -0.3410     0.0230 ns         1 3UL      -0.139000
     23 C            1.3150    -1.5140     0.1440 c          1 3UL       0.619700
     24 O            0.8000    -2.6140     0.3090 o          1 3UL      -0.575100
     25 N            5.6600    -1.1190    -0.0810 nb         1 3UL      -0.649000
     26 H1           3.2650    -3.4590     0.4320 ha         1 3UL       0.136500
     27 H2           5.7300    -3.1640     0.2930 h4         1 3UL       0.024600
     28 H3           5.3580     0.9060    -0.4470 h4         1 3UL       0.024600
     29 H4           2.8910     0.8040    -0.3490 ha         1 3UL       0.136500
     30 H5          -1.5430    -2.1020     0.0210 ha         1 3UL       0.163000
     31 H6          -4.5750     0.9730    -0.0710 ha         1 3UL       0.134000
     32 H7          -2.8190     2.7080    -0.0690 ha         1 3UL       0.122000
     33 H8          -0.3520     2.7490    -2.0940 h1         1 3UL       0.040950
     34 H9          -0.8410     4.0750    -1.0200 h1         1 3UL       0.040950
     35 H10          2.0270     3.0850    -1.5400 hc         1 3UL       0.047950
     36 H11          1.3340     4.6090    -2.0860 hc         1 3UL       0.047950
     37 H12          2.7780     4.9040    -0.0210 hc         1 3UL       0.044200
     38 H13          1.1140     5.4220     0.2510 hc         1 3UL       0.044200
     39 H14          2.3550     2.7370     1.1130 hc         1 3UL       0.047950
     40 H15          1.8450     4.0400     2.1780 hc         1 3UL       0.047950
     41 H16         -0.5290     3.7120     1.5580 h1         1 3UL       0.040950
     42 H17          0.1690     2.1700     2.0890 h1         1 3UL       0.040950
     43 H18          1.1500     0.4930    -0.0770 hn         1 3UL       0.186000
@<TRIPOS>BOND
     1     1     2 ar  
     2     1     5 ar  
     3     1    23 1   
     4     2     3 ar  
     5     2    26 1   
     6     3    25 ar  
     7     3    27 1   
     8     4     5 ar  
     9     4    25 ar  
    10     4    28 1   
    11     5    29 1   
    12     6     9 ar  
    13     6    13 ar  
    14     6    22 1   
    15     7     8 1   
    16     7    13 ar  
    17     7    14 ar  
    18     8    10 1   
    19     8    11 1   
    20     8    12 1   
    21     9    15 ar  
    22     9    16 1   
    23    13    30 1   
    24    14    15 ar  
    25    14    31 1   
    26    15    32 1   
    27    16    17 1   
    28    16    21 1   
    29    17    18 1   
    30    17    33 1   
    31    17    34 1   
    32    18    19 1   
    33    18    35 1   
    34    18    36 1   
    35    19    20 1   
    36    19    37 1   
    37    19    38 1   
    38    20    21 1   
    39    20    39 1   
    40    20    40 1   
    41    21    41 1   
    42    21    42 1   
    43    22    23 1   
    44    22    43 1   
    45    23    24 2   
@<TRIPOS>SUBSTRUCTURE
     1 3UL         1 TEMP              0 ****  ****    0 ROOT
