@<TRIPOS>MOLECULE
3UL
   43    45     1     0     0
SMALL
bcc


@<TRIPOS>ATOM
      1 C1           2.7800    -1.3270     0.0240 ca         1 3UL      -0.113600
      2 C2           3.5650    -2.2790     0.6640 ca         1 3UL      -0.210800
      3 C3           4.9440    -2.1850     0.5620 ca         1 3UL       0.394200
      4 C4           4.8130    -0.3400    -0.7540 ca         1 3UL       0.394200
      5 C5           3.4270    -0.3370    -0.7080 ca         1 3UL      -0.210800
      6 C6          -0.7500    -0.0450    -0.0440 ca         1 3UL       0.074600
      7 C8          -3.0750    -0.6430    -0.0690 ca         1 3UL      -0.175300
      8 C9          -4.1040    -1.7290    -0.0440 c3         1 3UL       0.721200
      9 C12         -1.1090     1.3190    -0.0950 ca         1 3UL       0.074600
     10 F2          -3.9740    -2.5630    -1.0870 f          1 3UL      -0.233633
     11 F           -3.9990    -2.4860     1.0590 f          1 3UL      -0.233633
     12 F1          -5.3540    -1.2590    -0.0760 f          1 3UL      -0.233633
     13 C7          -1.7360    -1.0210    -0.0220 ca         1 3UL      -0.105000
     14 C10         -3.4380     0.6900    -0.1470 ca         1 3UL      -0.097000
     15 C11         -2.4480     1.6640    -0.1560 ca         1 3UL      -0.139000
     16 N2          -0.0550     2.2570    -0.0920 nh         1 3UL      -0.662000
     17 C17         -0.2050     3.3910    -0.9940 c6         1 3UL       0.181800
     18 C16          1.1230     4.1210    -1.1250 c6         1 3UL      -0.078400
     19 C15          1.6330     4.5680     0.2400 c6         1 3UL      -0.076400
     20 C14          1.6910     3.3880     1.2030 c6         1 3UL      -0.078400
     21 C13          0.3560     2.6650     1.2560 c6         1 3UL       0.181800
     22 N1           0.6190    -0.2890    -0.0630 ns         1 3UL      -0.465100
     23 C            1.2900    -1.4420     0.1410 c          1 3UL       0.686700
     24 O            0.7650    -2.5040     0.4220 o          1 3UL      -0.575100
     25 N            5.5650    -1.2380    -0.1310 nb         1 3UL      -0.649000
     26 H1           3.1180    -3.0770     1.2390 ha         1 3UL       0.154500
     27 H2           5.5720    -2.9130     1.0630 h4         1 3UL       0.024600
     28 H3           5.3330     0.4190    -1.3270 h4         1 3UL       0.024600
     29 H4           2.8950     0.4190    -1.2700 ha         1 3UL       0.154500
     30 H5          -1.4620    -2.0640     0.0170 ha         1 3UL       0.181000
     31 H6          -4.4750     0.9930    -0.1910 ha         1 3UL       0.152000
     32 H7          -2.7330     2.7060    -0.2070 ha         1 3UL       0.140000
     33 H8          -0.5320     3.0200    -1.9660 h1         1 3UL       0.040950
     34 H9          -0.9700     4.0980    -0.6380 h1         1 3UL       0.040950
     35 H10          1.8510     3.4540    -1.5950 hc         1 3UL       0.047950
     36 H11          0.9960     4.9780    -1.7900 hc         1 3UL       0.047950
     37 H12          2.6160     5.0350     0.1490 hc         1 3UL       0.044200
     38 H13          0.9590     5.3310     0.6450 hc         1 3UL       0.044200
     39 H14          2.4690     2.6850     0.8880 hc         1 3UL       0.047950
     40 H15          1.9560     3.7210     2.2090 hc         1 3UL       0.047950
     41 H16         -0.4070     3.3160     1.7100 h1         1 3UL       0.040950
     42 H17          0.4280     1.7780     1.8890 h1         1 3UL       0.040950
     43 H18          1.1350     0.5690    -0.2310 hn         1 3UL       0.352500
@<TRIPOS>BOND
     1     1     2 ar  
     2     1     5 ar  
     3     1    23 1   
     4     2     3 ar  
     5     2    26 1   
     6     3    25 ar  
     7     3    27 1   
     8     4     5 ar  
     9     4    25 ar  
    10     4    28 1   
    11     5    29 1   
    12     6     9 ar  
    13     6    13 ar  
    14     6    22 1   
    15     7     8 1   
    16     7    13 ar  
    17     7    14 ar  
    18     8    10 1   
    19     8    11 1   
    20     8    12 1   
    21     9    15 ar  
    22     9    16 1   
    23    13    30 1   
    24    14    15 ar  
    25    14    31 1   
    26    15    32 1   
    27    16    17 1   
    28    16    21 1   
    29    17    18 1   
    30    17    33 1   
    31    17    34 1   
    32    18    19 1   
    33    18    35 1   
    34    18    36 1   
    35    19    20 1   
    36    19    37 1   
    37    19    38 1   
    38    20    21 1   
    39    20    39 1   
    40    20    40 1   
    41    21    41 1   
    42    21    42 1   
    43    22    23 1   
    44    22    43 1   
    45    23    24 2   
@<TRIPOS>SUBSTRUCTURE
     1 3UL         1 TEMP              0 ****  ****    0 ROOT
