@<TRIPOS>MOLECULE
3UM
   53    55     1     0     0
SMALL
No Charge or Current Charge


@<TRIPOS>ATOM
      1 C1           1.3010     0.5690    -0.5270 c6         1 3UM       0.182000
      2 C2           2.9030     0.4760    -0.4330 c6         1 3UM      -0.184000
      3 C3           0.5240    -0.8240    -0.0570 c6         1 3UM      -0.001000
      4 O1           1.0220     0.7410    -1.9410 oh         1 3UM      -0.689000
      5 O2           0.8540     1.8760     1.6340 oh         1 3UM      -0.748000
      6 O3           4.3410    -0.4070     1.4240 o          1 3UM      -0.707000
      7 C11         -0.8790     1.9000    -0.0710 c6         1 3UM      -0.069400
      8 C12          2.6280    -2.1850    -0.8070 c6         1 3UM      -0.064400
      9 C13         -1.6750     0.5990     0.2880 c6         1 3UM      -0.040700
     10 C14         -1.9010    -1.9670     0.0020 c6         1 3UM      -0.044200
     11 C15         -3.1950     0.7600    -0.0710 c6         1 3UM      -0.015500
     12 C16         -3.3870    -1.7300     0.2290 c2         1 3UM      -0.187200
     13 C17         -3.9870    -0.5200     0.2510 ce         1 3UM      -0.102200
     14 C18         -3.4840     1.1460    -1.5590 c3         1 3UM      -0.080100
     15 C19         -5.4370    -0.4070     0.5230 ce         1 3UM      -0.156000
     16 C20         -6.1780     0.7250     0.5470 c2         1 3UM      -0.337000
     17 C4           0.6470     1.8370     0.2160 c6         1 3UM       0.190300
     18 C5           3.3420    -0.8430    -1.2220 c6         1 3UM      -0.040400
     19 C6           3.4910     0.4280     1.0760 c          1 3UM       0.726000
     20 C7           3.6020     1.7080    -1.1170 c3         1 3UM      -0.076100
     21 C8          -1.0590    -0.6910    -0.3590 c6         1 3UM      -0.042700
     22 C9           1.0840    -2.0630    -0.8910 c6         1 3UM      -0.062400
     23 C10          0.7260    -1.2070     1.4830 c3         1 3UM      -0.088100
     24 O4           3.3740     1.4610     1.7220 o          1 3UM      -0.707000
     25 H1           1.5560     0.0760    -2.4270 ho         1 3UM       0.429000
     26 H2           1.8500     1.8040     1.7500 ho         1 3UM       0.531000
     27 H4          -1.0000     2.1340    -1.1350 hc         1 3UM       0.030700
     28 H5          -1.3130     2.7540     0.4650 hc         1 3UM       0.030700
     29 H6           2.9660    -2.9970    -1.4650 hc         1 3UM       0.034700
     30 H7           2.9310    -2.4750     0.2070 hc         1 3UM       0.034700
     31 H8          -1.6320     0.4830     1.3790 hc         1 3UM       0.065700
     32 H9          -1.5380    -2.4450     0.9160 hc         1 3UM       0.046700
     33 H10         -1.7790    -2.7180    -0.7890 hc         1 3UM       0.046700
     34 H11         -3.5770     1.5850     0.5440 hc         1 3UM       0.044700
     35 H12         -3.9690    -2.6300     0.4290 ha         1 3UM       0.152000
     36 H13         -3.0400     0.4320    -2.2610 hc         1 3UM       0.028367
     37 H14         -4.5610     1.1630    -1.7620 hc         1 3UM       0.028367
     38 H15         -3.1100     2.1450    -1.8050 hc         1 3UM       0.028367
     39 H16         -5.9440    -1.3530     0.7260 ha         1 3UM       0.154000
     40 H17         -7.2470     0.6900     0.7620 ha         1 3UM       0.156500
     41 H18         -5.7670     1.7150     0.3550 ha         1 3UM       0.156500
     42 H19          1.0610     2.7820    -0.1910 h1         1 3UM      -0.005300
     43 H20          3.1840    -0.7000    -2.3000 hc         1 3UM       0.030700
     44 H21          4.4280    -0.9820    -1.1300 hc         1 3UM       0.030700
     45 H22          3.2940     2.6600    -0.6680 hc         1 3UM       0.022033
     46 H23          4.6920     1.6420    -1.0150 hc         1 3UM       0.022033
     47 H24          3.3890     1.7700    -2.1900 hc         1 3UM       0.022033
     48 H25         -1.1650    -0.5710    -1.4440 hc         1 3UM       0.053700
     49 H26          0.6360    -3.0040    -0.5440 hc         1 3UM       0.023200
     50 H27          0.7930    -1.9680    -1.9460 hc         1 3UM       0.023200
     51 H28          0.1710    -0.5570     2.1640 hc         1 3UM       0.041700
     52 H29          0.4110    -2.2320     1.7010 hc         1 3UM       0.041700
     53 H30          1.7670    -1.1810     1.7990 hc         1 3UM       0.041700
@<TRIPOS>BOND
     1     1     2 1   
     2     1     3 1   
     3     1     4 1   
     4     1    17 1   
     5     2    18 1   
     6     2    19 1   
     7     2    20 1   
     8     3    21 1   
     9     3    22 1   
    10     3    23 1   
    11     4    25 1   
    12     5    17 1   
    13     5    26 1   
    14     6    19 1   
    15     7     9 1   
    16     7    17 1   
    17     7    27 1   
    18     7    28 1   
    19     8    18 1   
    20     8    22 1   
    21     8    29 1   
    22     8    30 1   
    23     9    11 1   
    24     9    21 1   
    25     9    31 1   
    26    10    12 1   
    27    10    21 1   
    28    10    32 1   
    29    10    33 1   
    30    11    13 1   
    31    11    14 1   
    32    11    34 1   
    33    12    13 2   
    34    12    35 1   
    35    13    15 1   
    36    14    36 1   
    37    14    37 1   
    38    14    38 1   
    39    15    16 2   
    40    15    39 1   
    41    16    40 1   
    42    16    41 1   
    43    17    42 1   
    44    18    43 1   
    45    18    44 1   
    46    19    24 1   
    47    20    45 1   
    48    20    46 1   
    49    20    47 1   
    50    21    48 1   
    51    22    49 1   
    52    22    50 1   
    53    23    51 1   
    54    23    52 1   
    55    23    53 1   
@<TRIPOS>SUBSTRUCTURE
     1 3UM         1 TEMP              0 ****  ****    0 ROOT
