@<TRIPOS>MOLECULE
3UM
   53    55     1     0     0
SMALL
bcc


@<TRIPOS>ATOM
      1 C1           1.2540     0.4760    -0.4950 c6         1 3UM       0.158800
      2 C2           2.8350     0.3500    -0.3930 c6         1 3UM      -0.184000
      3 C3           0.5040    -0.8200    -0.0380 c6         1 3UM      -0.001000
      4 O1           0.9650     0.5750    -1.8890 oh         1 3UM      -0.626800
      5 O2           0.7940     1.8990     1.5140 oh         1 3UM      -0.685800
      6 O3           4.3610    -0.5380     1.2510 o          1 3UM      -0.812300
      7 C11         -0.8510     1.8390    -0.1810 c6         1 3UM      -0.069400
      8 C12          2.5540    -2.1630    -0.7780 c6         1 3UM      -0.064400
      9 C13         -1.6330     0.6030     0.2420 c6         1 3UM      -0.040700
     10 C14         -1.8270    -1.9110     0.0590 c6         1 3UM      -0.044200
     11 C15         -3.1230     0.7550    -0.1190 c6         1 3UM      -0.015500
     12 C16         -3.2840    -1.6780     0.2710 c2         1 3UM      -0.137200
     13 C17         -3.8940    -0.4870     0.2340 ce         1 3UM      -0.102200
     14 C18         -3.3800     1.1100    -1.5900 c3         1 3UM      -0.080100
     15 C19         -5.3270    -0.4090     0.5160 ce         1 3UM      -0.106000
     16 C20         -6.0730     0.6970     0.5690 c2         1 3UM      -0.237000
     17 C4           0.6360     1.7600     0.1360 c6         1 3UM       0.167100
     18 C5           3.2560    -0.8850    -1.2060 c6         1 3UM      -0.040400
     19 C6           3.4900     0.3100     1.0220 c          1 3UM       0.936600
     20 C7           3.5110     1.5760    -1.0450 c3         1 3UM      -0.076100
     21 C8          -1.0200    -0.6690    -0.3500 c6         1 3UM      -0.042700
     22 C9           1.0410    -2.0160    -0.8490 c6         1 3UM      -0.062400
     23 C10          0.7170    -1.1300     1.4520 c3         1 3UM      -0.088100
     24 O4           3.1770     1.2220     1.8400 o          1 3UM      -0.812300
     25 H1           1.1750     1.4650    -2.1880 ho         1 3UM       0.390000
     26 H2           1.7540     1.6860     1.7090 ho         1 3UM       0.492000
     27 H4          -0.9790     2.0120    -1.2490 hc         1 3UM       0.030700
     28 H5          -1.2620     2.7250     0.3160 hc         1 3UM       0.030700
     29 H6           2.8670    -2.9890    -1.4230 hc         1 3UM       0.034700
     30 H7           2.8650    -2.4350     0.2330 hc         1 3UM       0.034700
     31 H8          -1.5900     0.5280     1.3350 hc         1 3UM       0.065700
     32 H9          -1.4500    -2.3510     0.9880 hc         1 3UM       0.046700
     33 H10         -1.7020    -2.7020    -0.6870 hc         1 3UM       0.046700
     34 H11         -3.5050     1.5870     0.4870 hc         1 3UM       0.044700
     35 H12         -3.8730    -2.5610     0.5070 ha         1 3UM       0.102000
     36 H13         -2.8950     0.4020    -2.2640 hc         1 3UM       0.028367
     37 H14         -4.4480     1.0900    -1.8110 hc         1 3UM       0.028367
     38 H15         -3.0210     2.1080    -1.8390 hc         1 3UM       0.028367
     39 H16         -5.8120    -1.3630     0.7070 ha         1 3UM       0.104000
     40 H17         -7.1290     0.6410     0.7960 ha         1 3UM       0.106500
     41 H18         -5.6720     1.6870     0.3940 ha         1 3UM       0.106500
     42 H19          1.1140     2.6120    -0.3860 h1         1 3UM      -0.005300
     43 H20          3.0400    -0.7040    -2.2620 hc         1 3UM       0.030700
     44 H21          4.3370    -1.0060    -1.1320 hc         1 3UM       0.030700
     45 H22          3.2360     2.5180    -0.5730 hc         1 3UM       0.022033
     46 H23          4.5960     1.4830    -0.9670 hc         1 3UM       0.022033
     47 H24          3.2900     1.6470    -2.1110 hc         1 3UM       0.022033
     48 H25         -1.1040    -0.5870    -1.4370 hc         1 3UM       0.053700
     49 H26          0.5690    -2.9330    -0.4850 hc         1 3UM       0.023200
     50 H27          0.7370    -1.9160    -1.8950 hc         1 3UM       0.023200
     51 H28          0.2170    -0.4270     2.1140 hc         1 3UM       0.041700
     52 H29          0.3400    -2.1270     1.6820 hc         1 3UM       0.041700
     53 H30          1.7650    -1.1510     1.7330 hc         1 3UM       0.041700
@<TRIPOS>BOND
     1     1     2 1   
     2     1     3 1   
     3     1     4 1   
     4     1    17 1   
     5     2    18 1   
     6     2    19 1   
     7     2    20 1   
     8     3    21 1   
     9     3    22 1   
    10     3    23 1   
    11     4    25 1   
    12     5    17 1   
    13     5    26 1   
    14     6    19 1   
    15     7     9 1   
    16     7    17 1   
    17     7    27 1   
    18     7    28 1   
    19     8    18 1   
    20     8    22 1   
    21     8    29 1   
    22     8    30 1   
    23     9    11 1   
    24     9    21 1   
    25     9    31 1   
    26    10    12 1   
    27    10    21 1   
    28    10    32 1   
    29    10    33 1   
    30    11    13 1   
    31    11    14 1   
    32    11    34 1   
    33    12    13 2   
    34    12    35 1   
    35    13    15 1   
    36    14    36 1   
    37    14    37 1   
    38    14    38 1   
    39    15    16 2   
    40    15    39 1   
    41    16    40 1   
    42    16    41 1   
    43    17    42 1   
    44    18    43 1   
    45    18    44 1   
    46    19    24 1   
    47    20    45 1   
    48    20    46 1   
    49    20    47 1   
    50    21    48 1   
    51    22    49 1   
    52    22    50 1   
    53    23    51 1   
    54    23    52 1   
    55    23    53 1   
@<TRIPOS>SUBSTRUCTURE
     1 3UM         1 TEMP              0 ****  ****    0 ROOT
