@<TRIPOS>MOLECULE
3UN
   64    64     1     0     0
SMALL
No Charge or Current Charge


@<TRIPOS>ATOM
      1 N           22.7110     4.6720    24.0940 nu         1 3UN      -0.885100
      2 O48         19.0750     2.2210    31.8210 o          1 3UN      -0.475000
      3 C36         20.1670     2.6030    31.4180 c          1 3UN       0.604600
      4 O49         21.2840     2.6500    32.2140 os         1 3UN      -0.449600
      5 C51         21.1980     2.1020    33.5400 c3         1 3UN       0.166100
      6 C54         22.5760     2.2790    34.1970 c3         1 3UN      -0.095600
      7 C11         20.4040     3.3130    30.0670 c3         1 3UN      -0.148000
      8 C15         20.6910     4.8390    30.3180 c3         1 3UN      -0.093400
      9 C44         19.6540     5.5760    31.2020 c3         1 3UN       0.118000
     10 N39         20.0160     6.9780    31.4100 ns         1 3UN      -0.507900
     11 C37         19.8710     7.9680    30.4810 c          1 3UN       0.639100
     12 O38         19.3880     7.8160    29.3720 o          1 3UN      -0.527000
     13 O19         20.3510     9.1280    31.0250 os         1 3UN      -0.495100
     14 C20         20.3620    10.3810    30.3010 c3         1 3UN       0.220000
     15 C23         18.9070    10.8030    29.9670 c3         1 3UN      -0.107100
     16 C22         20.9880    11.3880    31.2910 c3         1 3UN      -0.107100
     17 C21         21.2590    10.2490    29.0430 c3         1 3UN      -0.107100
     18 C14         19.1570     3.0930    29.1820 c          1 3UN       0.604600
     19 O47         18.8460     1.7630    29.0350 os         1 3UN      -0.449600
     20 C50         17.7060     1.4180    28.2330 c3         1 3UN       0.166100
     21 C60         17.6030    -0.1140    28.2200 c3         1 3UN      -0.095600
     22 O46         18.5030     3.9970    28.6770 o          1 3UN      -0.475000
     23 C35         21.6290     2.6430    29.3570 c3         1 3UN       0.009900
     24 C2          21.9220     3.1900    27.9590 ca         1 3UN      -0.175300
     25 C5          21.3250     2.6060    26.8250 ca         1 3UN      -0.070000
     26 C4          21.5980     3.1090    25.5420 ca         1 3UN      -0.169000
     27 C6          22.8070     4.2720    27.7890 ca         1 3UN      -0.070000
     28 C3          23.0780     4.7710    26.5040 ca         1 3UN      -0.169000
     29 C1          22.4830     4.1860    25.3710 ca         1 3UN       0.360000
     30 S12         24.1690     5.0070    23.4390 s6         1 3UN       1.382700
     31 O17         24.3470     6.4190    23.7880 o          1 3UN      -0.703533
     32 O18         23.8730     4.7210    22.0360 o          1 3UN      -0.703533
     33 O34         25.0510     4.0530    24.1140 o          1 3UN      -0.703533
     34 HN          22.3180     4.1270    23.3480 hn         1 3UN       0.455000
     35 H511        20.9400     1.0350    33.5070 h1         1 3UN       0.049950
     36 H512        20.4390     2.6280    34.1340 h1         1 3UN       0.049950
     37 H541        22.5640     1.8750    35.2160 hc         1 3UN       0.044867
     38 H542        22.8450     3.3400    34.2500 hc         1 3UN       0.044867
     39 H543        23.3470     1.7490    33.6250 hc         1 3UN       0.044867
     40 H151        20.7600     5.3590    29.3550 hc         1 3UN       0.076200
     41 H152        21.6740     4.9460    30.7940 hc         1 3UN       0.076200
     42 H441        19.5900     5.0940    32.1870 h1         1 3UN       0.062700
     43 H442        18.6590     5.5330    30.7410 h1         1 3UN       0.062700
     44 H39         20.4290     7.2580    32.2900 hn         1 3UN       0.316500
     45 H231        18.4750    10.1910    29.1680 hc         1 3UN       0.049478
     46 H232        18.8810    11.8450    29.6260 hc         1 3UN       0.049478
     47 H233        18.2650    10.7220    30.8520 hc         1 3UN       0.049478
     48 H221        21.0480    12.3880    30.8450 hc         1 3UN       0.049478
     49 H222        22.0020    11.0800    31.5710 hc         1 3UN       0.049478
     50 H223        20.3870    11.4610    32.2060 hc         1 3UN       0.049478
     51 H211        22.2220     9.7910    29.2990 hc         1 3UN       0.049478
     52 H212        21.4590    11.2370    28.6110 hc         1 3UN       0.049478
     53 H213        20.7850     9.6450    28.2620 hc         1 3UN       0.049478
     54 H501        17.8240     1.7860    27.2050 h1         1 3UN       0.049950
     55 H502        16.7860     1.8450    28.6550 h1         1 3UN       0.049950
     56 H601        17.4720    -0.5010    29.2370 hc         1 3UN       0.044867
     57 H602        18.5080    -0.5580    27.7890 hc         1 3UN       0.044867
     58 H603        16.7430    -0.4320    27.6180 hc         1 3UN       0.044867
     59 H351        21.4670     1.5590    29.2990 hc         1 3UN       0.055200
     60 H352        22.5250     2.7620    29.9790 hc         1 3UN       0.055200
     61 H5          20.6470     1.7620    26.9350 ha         1 3UN       0.093500
     62 H4          21.1230     2.6540    24.6780 ha         1 3UN       0.127500
     63 H6          23.2820     4.7320    28.6530 ha         1 3UN       0.093500
     64 H3          23.7490     5.6160    26.3900 ha         1 3UN       0.127500
@<TRIPOS>BOND
     1     1    29 1   
     2     1    30 1   
     3     1    34 1   
     4     2     3 2   
     5     3     4 1   
     6     3     7 1   
     7     4     5 1   
     8     5     6 1   
     9     5    35 1   
    10     5    36 1   
    11     6    37 1   
    12     6    38 1   
    13     6    39 1   
    14     7     8 1   
    15     7    18 1   
    16     7    23 1   
    17     8     9 1   
    18     8    40 1   
    19     8    41 1   
    20     9    10 1   
    21     9    42 1   
    22     9    43 1   
    23    10    11 1   
    24    10    44 1   
    25    11    12 2   
    26    11    13 1   
    27    13    14 1   
    28    14    15 1   
    29    14    16 1   
    30    14    17 1   
    31    15    45 1   
    32    15    46 1   
    33    15    47 1   
    34    16    48 1   
    35    16    49 1   
    36    16    50 1   
    37    17    51 1   
    38    17    52 1   
    39    17    53 1   
    40    18    19 1   
    41    18    22 2   
    42    19    20 1   
    43    20    21 1   
    44    20    54 1   
    45    20    55 1   
    46    21    56 1   
    47    21    57 1   
    48    21    58 1   
    49    23    24 1   
    50    23    59 1   
    51    23    60 1   
    52    24    25 ar  
    53    24    27 ar  
    54    25    26 ar  
    55    25    61 1   
    56    26    29 ar  
    57    26    62 1   
    58    27    28 ar  
    59    27    63 1   
    60    28    29 ar  
    61    28    64 1   
    62    30    31 1   
    63    30    32 1   
    64    30    33 1   
@<TRIPOS>SUBSTRUCTURE
     1 3UN         1 TEMP              0 ****  ****    0 ROOT
