@<TRIPOS>MOLECULE
3UN
   64    64     1     0     0
SMALL
abcg2


@<TRIPOS>ATOM
      1 N           22.6820     4.3950    24.0960 nu         1 3UN      -0.885100
      2 O48         19.0410     2.5500    31.9150 o          1 3UN      -0.475000
      3 C36         20.1630     2.7530    31.5050 c          1 3UN       0.604600
      4 O49         21.2660     2.5050    32.2040 os         1 3UN      -0.449600
      5 C51         21.1050     1.9800    33.5510 c3         1 3UN       0.166100
      6 C54         22.4850     1.8340    34.1450 c3         1 3UN      -0.095600
      7 C11         20.4870     3.3980    30.1560 c3         1 3UN      -0.148000
      8 C15         20.8360     4.8810    30.4040 c3         1 3UN      -0.093400
      9 C44         19.8520     5.6490    31.2910 c3         1 3UN       0.118000
     10 N39         20.2410     7.0360    31.4640 ns         1 3UN      -0.507900
     11 C37         19.9000     8.0030    30.5820 c          1 3UN       0.639100
     12 O38         19.1790     7.8270    29.6110 o          1 3UN      -0.527000
     13 O19         20.4600     9.1760    30.9430 os         1 3UN      -0.495100
     14 C20         20.2080    10.4240    30.1990 c3         1 3UN       0.220000
     15 C23         18.7240    10.7710    30.2450 c3         1 3UN      -0.107100
     16 C22         21.0200    11.4480    30.9820 c3         1 3UN      -0.107100
     17 C21         20.7370    10.3020    28.7740 c3         1 3UN      -0.107100
     18 C14         19.2610     3.2690    29.2470 c          1 3UN       0.604600
     19 O47         18.9410     1.9940    29.0420 os         1 3UN      -0.449600
     20 C50         17.8400     1.7190    28.1370 c3         1 3UN       0.166100
     21 C60         17.7310     0.2200    28.0000 c3         1 3UN      -0.095600
     22 O46         18.6840     4.1990    28.7320 o          1 3UN      -0.475000
     23 C35         21.6860     2.6620    29.4730 c3         1 3UN       0.009900
     24 C2          21.9660     3.1150    28.0640 ca         1 3UN      -0.175300
     25 C5          21.3930     2.4650    26.9690 ca         1 3UN      -0.070000
     26 C4          21.6440     2.8810    25.6700 ca         1 3UN      -0.169000
     27 C6          22.8080     4.1960    27.8030 ca         1 3UN      -0.070000
     28 C3          23.0620     4.6310    26.5100 ca         1 3UN      -0.169000
     29 C1          22.4790     3.9750    25.4210 ca         1 3UN       0.360000
     30 S12         24.2010     4.9310    23.5430 s6         1 3UN       1.382700
     31 O17         24.3690     6.2670    24.1070 o          1 3UN      -0.703533
     32 O18         24.0130     4.9100    22.0960 o          1 3UN      -0.703533
     33 O34         25.2040     3.9820    24.0250 o          1 3UN      -0.703533
     34 HN          22.2880     3.7620    23.4120 hn         1 3UN       0.455000
     35 H511        20.5830     1.0250    33.4840 h1         1 3UN       0.049950
     36 H512        20.4860     2.6770    34.1160 h1         1 3UN       0.049950
     37 H541        22.4000     1.4450    35.1610 hc         1 3UN       0.044867
     38 H542        22.9940     2.7980    34.1870 hc         1 3UN       0.044867
     39 H543        23.0910     1.1410    33.5600 hc         1 3UN       0.044867
     40 H151        20.9030     5.3800    29.4390 hc         1 3UN       0.076200
     41 H152        21.8250     4.9170    30.8640 hc         1 3UN       0.076200
     42 H441        19.7970     5.2050    32.2850 h1         1 3UN       0.062700
     43 H442        18.8540     5.6240    30.8580 h1         1 3UN       0.062700
     44 H39         20.9030     7.2710    32.1850 hn         1 3UN       0.316500
     45 H231        18.1310    10.0590    29.6770 hc         1 3UN       0.049478
     46 H232        18.5770    11.7670    29.8230 hc         1 3UN       0.049478
     47 H233        18.3730    10.7840    31.2790 hc         1 3UN       0.049478
     48 H221        20.9100    12.4310    30.5220 hc         1 3UN       0.049478
     49 H222        22.0770    11.1800    30.9840 hc         1 3UN       0.049478
     50 H223        20.6700    11.5070    32.0140 hc         1 3UN       0.049478
     51 H211        21.7850     9.9980    28.7860 hc         1 3UN       0.049478
     52 H212        20.6680    11.2750    28.2840 hc         1 3UN       0.049478
     53 H213        20.1650     9.5790    28.1970 hc         1 3UN       0.049478
     54 H501        18.0540     2.2020    27.1830 h1         1 3UN       0.049950
     55 H502        16.9350     2.1600    28.5550 h1         1 3UN       0.049950
     56 H601        17.5330    -0.2480    28.9650 hc         1 3UN       0.044867
     57 H602        18.6500    -0.1990    27.5870 hc         1 3UN       0.044867
     58 H603        16.9090    -0.0220    27.3240 hc         1 3UN       0.044867
     59 H351        21.4770     1.5920    29.4800 hc         1 3UN       0.055200
     60 H352        22.5610     2.8290    30.0990 hc         1 3UN       0.055200
     61 H5          20.7520     1.6070    27.1300 ha         1 3UN       0.093500
     62 H4          21.2000     2.3510    24.8350 ha         1 3UN       0.127500
     63 H6          23.2840     4.7110    28.6290 ha         1 3UN       0.093500
     64 H3          23.7140     5.4750    26.3400 ha         1 3UN       0.127500
@<TRIPOS>BOND
     1     1    29 1   
     2     1    30 1   
     3     1    34 1   
     4     2     3 2   
     5     3     4 1   
     6     3     7 1   
     7     4     5 1   
     8     5     6 1   
     9     5    35 1   
    10     5    36 1   
    11     6    37 1   
    12     6    38 1   
    13     6    39 1   
    14     7     8 1   
    15     7    18 1   
    16     7    23 1   
    17     8     9 1   
    18     8    40 1   
    19     8    41 1   
    20     9    10 1   
    21     9    42 1   
    22     9    43 1   
    23    10    11 1   
    24    10    44 1   
    25    11    12 2   
    26    11    13 1   
    27    13    14 1   
    28    14    15 1   
    29    14    16 1   
    30    14    17 1   
    31    15    45 1   
    32    15    46 1   
    33    15    47 1   
    34    16    48 1   
    35    16    49 1   
    36    16    50 1   
    37    17    51 1   
    38    17    52 1   
    39    17    53 1   
    40    18    19 1   
    41    18    22 2   
    42    19    20 1   
    43    20    21 1   
    44    20    54 1   
    45    20    55 1   
    46    21    56 1   
    47    21    57 1   
    48    21    58 1   
    49    23    24 1   
    50    23    59 1   
    51    23    60 1   
    52    24    25 ar  
    53    24    27 ar  
    54    25    26 ar  
    55    25    61 1   
    56    26    29 ar  
    57    26    62 1   
    58    27    28 ar  
    59    27    63 1   
    60    28    29 ar  
    61    28    64 1   
    62    30    31 1   
    63    30    32 1   
    64    30    33 1   
@<TRIPOS>SUBSTRUCTURE
     1 3UN         1 TEMP              0 ****  ****    0 ROOT
