@<TRIPOS>MOLECULE
3UO
   39    41     1     0     0
SMALL
bcc


@<TRIPOS>ATOM
      1 C1          -0.0890     0.0160     0.9100 ca         1 3UO      -0.082600
      2 C2          -1.2460     0.4580     0.3010 ca         1 3UO      -0.252300
      3 C3          -2.4540    -0.1780     0.6100 ca         1 3UO       0.553200
      4 N4          -2.5370    -1.1720     1.4770 nb         1 3UO      -0.666000
      5 C5          -1.4180    -1.5800     2.0640 ca         1 3UO       0.436200
      6 C6          -0.1710    -1.0340     1.8230 ca         1 3UO      -0.270300
      7 C7           1.1930     0.7150     0.5760 c          1 3UO       0.680700
      8 N8          -3.5960     0.2860    -0.0270 ns         1 3UO      -0.561400
      9 N9           2.3100    -0.0350     0.7250 ns         1 3UO      -0.464100
     10 O10          1.2010     1.8700     0.1960 o          1 3UO      -0.574100
     11 C11         -4.8670    -0.2250    -0.0240 c          1 3UO       0.710100
     12 C12         -5.8120     0.5740    -0.8500 cx         1 3UO      -0.255700
     13 O13         -5.2050    -1.2210     0.5810 o          1 3UO      -0.534100
     14 C14         -6.9380    -0.1560    -1.5350 cx         1 3UO      -0.094900
     15 C15         -7.2330     0.7030    -0.3630 cx         1 3UO      -0.094900
     16 C16          3.6010     0.4270     0.4250 ca         1 3UO      -0.105700
     17 C17          4.1080     1.5920     0.9770 ca         1 3UO       0.440200
     18 N18          5.3190     2.0690     0.7130 nb         1 3UO      -0.674000
     19 C19          6.0810     1.3680    -0.1150 ca         1 3UO       0.428200
     20 C20          5.6920     0.1800    -0.7130 ca         1 3UO      -0.328300
     21 C21          4.4160    -0.3080    -0.4480 ca         1 3UO       0.152100
     22 O22          3.8990    -1.4250    -0.9530 os         1 3UO      -0.318900
     23 C23          4.7080    -2.2290    -1.8000 c3         1 3UO       0.125700
     24 H1          -1.2190     1.2740    -0.4090 ha         1 3UO       0.160000
     25 H2          -1.5220    -2.3890     2.7780 h4         1 3UO       0.027100
     26 H3           0.6870    -1.4080     2.3640 ha         1 3UO       0.145000
     27 H4          -3.4540     1.1000    -0.6050 hn         1 3UO       0.322500
     28 H5           2.2030    -1.0270     0.8790 hn         1 3UO       0.333500
     29 H6          -5.4010     1.4300    -1.3720 hc         1 3UO       0.084700
     30 H7          -7.2130     0.1960    -2.5200 hc         1 3UO       0.083450
     31 H8          -6.9820    -1.2290    -1.4050 hc         1 3UO       0.083450
     32 H9          -7.4810     0.2240     0.5750 hc         1 3UO       0.083450
     33 H10         -7.7130     1.6590    -0.5270 hc         1 3UO       0.083450
     34 H11          3.5010     2.1590     1.6730 h4         1 3UO       0.037100
     35 H12          7.0700     1.7620    -0.3190 h4         1 3UO       0.020100
     36 H13          6.3780    -0.3280    -1.3750 ha         1 3UO       0.146000
     37 H14          4.9890    -1.6930    -2.7090 h1         1 3UO       0.047367
     38 H15          5.6100    -2.5680    -1.2880 h1         1 3UO       0.047367
     39 H16          4.1060    -3.0920    -2.0680 h1         1 3UO       0.047367
@<TRIPOS>BOND
     1     1     2 ar  
     2     1     6 ar  
     3     1     7 1   
     4     2     3 ar  
     5     2    24 1   
     6     3     4 ar  
     7     3     8 1   
     8     4     5 ar  
     9     5     6 ar  
    10     5    25 1   
    11     6    26 1   
    12     7     9 1   
    13     7    10 2   
    14     8    11 1   
    15     8    27 1   
    16     9    16 1   
    17     9    28 1   
    18    11    12 1   
    19    11    13 2   
    20    12    14 1   
    21    12    15 1   
    22    12    29 1   
    23    14    15 1   
    24    14    30 1   
    25    14    31 1   
    26    15    32 1   
    27    15    33 1   
    28    16    17 ar  
    29    16    21 ar  
    30    17    18 ar  
    31    17    34 1   
    32    18    19 ar  
    33    19    20 ar  
    34    19    35 1   
    35    20    21 ar  
    36    20    36 1   
    37    21    22 1   
    38    22    23 1   
    39    23    37 1   
    40    23    38 1   
    41    23    39 1   
@<TRIPOS>SUBSTRUCTURE
     1 3UO         1 TEMP              0 ****  ****    0 ROOT
