@<TRIPOS>MOLECULE
3UO
   39    41     1     0     0
SMALL
No Charge or Current Charge


@<TRIPOS>ATOM
      1 C1          -0.2040     0.0100     0.0690 ca         1 3UO      -0.082600
      2 C2          -1.4910     0.5950     0.0550 ca         1 3UO      -0.169000
      3 C3          -2.6260    -0.2080     0.2450 ca         1 3UO       0.487900
      4 N4          -2.5690    -1.5440     0.4000 nb         1 3UO      -0.666000
      5 C5          -1.3480    -2.1190     0.4180 ca         1 3UO       0.370900
      6 C6          -0.1540    -1.3920     0.2630 ca         1 3UO      -0.187000
      7 C7           1.0360     0.8690    -0.1210 c          1 3UO       0.613700
      8 N8          -3.9100     0.3470     0.1710 ns         1 3UO      -0.327900
      9 N9           2.2480     0.1900    -0.0910 ns         1 3UO      -0.138000
     10 O10          0.9530     2.0810    -0.2880 o          1 3UO      -0.574100
     11 C11         -5.0860    -0.0340     0.7760 c          1 3UO       0.643100
     12 C12         -6.2670     0.8200     0.3760 cx         1 3UO      -0.255700
     13 O13         -5.1920    -0.9450     1.5870 o          1 3UO      -0.534100
     14 C14         -6.7060     0.8270    -1.0760 cx         1 3UO      -0.094900
     15 C15         -7.5580     0.1400    -0.0360 cx         1 3UO      -0.094900
     16 C16          3.6000     0.6290    -0.2280 ca         1 3UO      -0.133000
     17 C17          3.9720     1.9770    -0.4400 ca         1 3UO       0.374900
     18 N18          5.2570     2.3820    -0.5680 nb         1 3UO      -0.674000
     19 C19          6.2270     1.4470    -0.4890 ca         1 3UO       0.362900
     20 C20          5.9600     0.0890    -0.2820 ca         1 3UO      -0.245000
     21 C21          4.6240    -0.3320    -0.1490 ca         1 3UO       0.152100
     22 O22          4.2810    -1.6540     0.0570 os         1 3UO      -0.342100
     23 C23          5.2670    -2.6980     0.1510 c3         1 3UO       0.148900
     24 H1          -1.6150     1.6640    -0.0980 ha         1 3UO       0.142000
     25 H2          -1.3230    -3.1990     0.5570 h4         1 3UO       0.027100
     26 H3           0.7850    -1.9370     0.2890 ha         1 3UO       0.127000
     27 H4          -3.9790     1.1610    -0.4220 hn         1 3UO       0.156000
     28 H5           2.1610    -0.8070     0.0550 hn         1 3UO       0.167000
     29 H6          -6.3580     1.7550     0.9230 hc         1 3UO       0.084700
     30 H7          -7.0720     1.7640    -1.4920 hc         1 3UO       0.083450
     31 H8          -6.1700     0.1970    -1.7830 hc         1 3UO       0.083450
     32 H9          -7.5890    -0.9480    -0.0460 hc         1 3UO       0.083450
     33 H10         -8.4950     0.6160     0.2460 hc         1 3UO       0.083450
     34 H11          3.2350     2.7730    -0.5120 h4         1 3UO       0.037100
     35 H12          7.2520     1.8010    -0.5960 h4         1 3UO       0.020100
     36 H13          6.7920    -0.6040    -0.2300 ha         1 3UO       0.128000
     37 H14          5.8530    -2.7650    -0.7740 h1         1 3UO       0.047367
     38 H15          5.9500    -2.5150     0.9900 h1         1 3UO       0.047367
     39 H16          4.7800    -3.6670     0.3150 h1         1 3UO       0.047367
@<TRIPOS>BOND
     1     1     2 ar  
     2     1     6 ar  
     3     1     7 1   
     4     2     3 ar  
     5     2    24 1   
     6     3     4 ar  
     7     3     8 1   
     8     4     5 ar  
     9     5     6 ar  
    10     5    25 1   
    11     6    26 1   
    12     7     9 1   
    13     7    10 2   
    14     8    11 1   
    15     8    27 1   
    16     9    16 1   
    17     9    28 1   
    18    11    12 1   
    19    11    13 2   
    20    12    14 1   
    21    12    15 1   
    22    12    29 1   
    23    14    15 1   
    24    14    30 1   
    25    14    31 1   
    26    15    32 1   
    27    15    33 1   
    28    16    17 ar  
    29    16    21 ar  
    30    17    18 ar  
    31    17    34 1   
    32    18    19 ar  
    33    19    20 ar  
    34    19    35 1   
    35    20    21 ar  
    36    20    36 1   
    37    21    22 1   
    38    22    23 1   
    39    23    37 1   
    40    23    38 1   
    41    23    39 1   
@<TRIPOS>SUBSTRUCTURE
     1 3UO         1 TEMP              0 ****  ****    0 ROOT
