@<TRIPOS>MOLECULE
3UP
   45    48     1     0     0
SMALL
No Charge or Current Charge


@<TRIPOS>ATOM
      1 C1          -0.7290     0.3860     0.0350 ca         1 3UP      -0.084600
      2 C2          -2.0730     0.7770     0.2320 ca         1 3UP      -0.170000
      3 C3          -3.1010    -0.1700     0.1130 ca         1 3UP       0.489900
      4 N4          -2.8870    -1.4540    -0.2320 nb         1 3UP      -0.667000
      5 C5          -1.6100    -1.8450    -0.4230 ca         1 3UP       0.372900
      6 C6          -0.5130    -0.9740    -0.2990 ca         1 3UP      -0.191000
      7 C7           0.3970     1.3960     0.1780 c          1 3UP       0.615700
      8 N8          -4.4420     0.2140     0.2440 ns         1 3UP      -0.326900
      9 N9           1.6750     0.9030    -0.0460 ns         1 3UP      -0.151000
     10 O10          0.1780     2.5630     0.4850 o          1 3UP      -0.572100
     11 C11         -5.5400    -0.4990     0.6670 c          1 3UP       0.643100
     12 C12         -6.8250     0.2930     0.6040 cx         1 3UP      -0.256700
     13 O13         -5.5080    -1.6470     1.0890 o          1 3UP      -0.533100
     14 C14         -8.0490    -0.3420    -0.0280 cx         1 3UP      -0.093900
     15 C15         -7.3250     0.7720    -0.7460 cx         1 3UP      -0.093900
     16 C16          2.9560     1.5250    -0.0060 ca         1 3UP      -0.083000
     17 C17          3.1400     2.9290    -0.0200 ca         1 3UP       0.345900
     18 N18          4.3610     3.5160    -0.0230 nb         1 3UP      -0.651000
     19 C19          5.4470     2.7110    -0.0180 ca         1 3UP       0.325900
     20 C20          5.3590     1.3110    -0.0080 ca         1 3UP      -0.142000
     21 C21          4.0960     0.6770     0.0070 cp         1 3UP      -0.024000
     22 C22          4.0000    -0.8150     0.0230 cp         1 3UP      -0.057000
     23 C23          3.2310    -1.4950     1.0010 ca         1 3UP      -0.096000
     24 C24          3.1440    -2.8980     1.0040 ca         1 3UP      -0.113000
     25 C25          3.8320    -3.6470     0.0360 ca         1 3UP      -0.101000
     26 C26          4.6110    -2.9930    -0.9330 ca         1 3UP      -0.113000
     27 C27          4.6960    -1.5900    -0.9360 ca         1 3UP      -0.096000
     28 H1          -2.3230     1.8050     0.4820 ha         1 3UP       0.141000
     29 H2          -1.4580    -2.8910    -0.6880 h4         1 3UP       0.027100
     30 H3           0.4810    -1.3760    -0.4720 ha         1 3UP       0.129000
     31 H4          -4.6270     1.1740    -0.0110 hn         1 3UP       0.156000
     32 H5           1.7070    -0.0840    -0.2650 hn         1 3UP       0.167000
     33 H6          -6.9980     0.9490     1.4530 hc         1 3UP       0.084700
     34 H7          -7.9580    -1.3480    -0.4330 hc         1 3UP       0.083450
     35 H8          -9.0210    -0.1170     0.4070 hc         1 3UP       0.083450
     36 H9          -7.8110     1.7440    -0.7940 hc         1 3UP       0.083450
     37 H10         -6.7530     0.5090    -1.6340 hc         1 3UP       0.083450
     38 H11          2.2990     3.6170    -0.0530 h4         1 3UP       0.038100
     39 H12          6.4180     3.2060    -0.0230 h4         1 3UP       0.023100
     40 H13          6.2700     0.7200    -0.0010 ha         1 3UP       0.128000
     41 H14          2.7070    -0.9290     1.7670 ha         1 3UP       0.121000
     42 H15          2.5480    -3.4040     1.7610 ha         1 3UP       0.118000
     43 H16          3.7660    -4.7330     0.0390 ha         1 3UP       0.117000
     44 H17          5.1470    -3.5720    -1.6810 ha         1 3UP       0.118000
     45 H18          5.2980    -1.0940    -1.6950 ha         1 3UP       0.121000
@<TRIPOS>BOND
     1     1     2 ar  
     2     1     6 ar  
     3     1     7 1   
     4     2     3 ar  
     5     2    28 1   
     6     3     4 ar  
     7     3     8 1   
     8     4     5 ar  
     9     5     6 ar  
    10     5    29 1   
    11     6    30 1   
    12     7     9 1   
    13     7    10 2   
    14     8    11 1   
    15     8    31 1   
    16     9    16 1   
    17     9    32 1   
    18    11    12 1   
    19    11    13 2   
    20    12    14 1   
    21    12    15 1   
    22    12    33 1   
    23    14    15 1   
    24    14    34 1   
    25    14    35 1   
    26    15    36 1   
    27    15    37 1   
    28    16    17 ar  
    29    16    21 ar  
    30    17    18 ar  
    31    17    38 1   
    32    18    19 ar  
    33    19    20 ar  
    34    19    39 1   
    35    20    21 ar  
    36    20    40 1   
    37    21    22 1   
    38    22    23 ar  
    39    22    27 ar  
    40    23    24 ar  
    41    23    41 1   
    42    24    25 ar  
    43    24    42 1   
    44    25    26 ar  
    45    25    43 1   
    46    26    27 ar  
    47    26    44 1   
    48    27    45 1   
@<TRIPOS>SUBSTRUCTURE
     1 3UP         1 TEMP              0 ****  ****    0 ROOT
