@<TRIPOS>MOLECULE
3UP
   45    48     1     0     0
SMALL
bcc


@<TRIPOS>ATOM
      1 C1          -0.6550     0.1220     0.0850 ca         1 3UP      -0.084600
      2 C2          -1.9350     0.6160     0.2420 ca         1 3UP      -0.253300
      3 C3          -3.0190    -0.2250    -0.0370 ca         1 3UP       0.555200
      4 N4          -2.8690    -1.4810    -0.4190 nb         1 3UP      -0.667000
      5 C5          -1.6330    -1.9500    -0.5470 ca         1 3UP       0.438200
      6 C6          -0.4930    -1.2030    -0.3170 ca         1 3UP      -0.274300
      7 C7           0.4930     1.0320     0.3970 c          1 3UP       0.682700
      8 N8          -4.2890     0.3130     0.1060 ns         1 3UP      -0.560400
      9 N9           1.6280     0.7720    -0.2910 ns         1 3UP      -0.477100
     10 O10          0.3860     1.9300     1.2100 o          1 3UP      -0.572100
     11 C11         -5.5130    -0.2540    -0.1360 c          1 3UP       0.710100
     12 C12         -6.6430     0.6760     0.1340 cx         1 3UP      -0.256700
     13 O13         -5.6780    -1.3900    -0.5290 o          1 3UP      -0.533100
     14 C14         -7.9200     0.0890     0.6790 cx         1 3UP      -0.093900
     15 C15         -7.8740     0.5550    -0.7270 cx         1 3UP      -0.093900
     16 C16          2.8590     1.4200    -0.0880 ca         1 3UP      -0.055700
     17 C17          2.9470     2.8090    -0.0730 ca         1 3UP       0.411200
     18 N18          4.0890     3.4630     0.0720 nb         1 3UP      -0.651000
     19 C19          5.2050     2.7520     0.1820 ca         1 3UP       0.391200
     20 C20          5.2250     1.3690     0.1610 ca         1 3UP      -0.225300
     21 C21          4.0290     0.6670     0.0410 cp         1 3UP      -0.024000
     22 C22          4.0190    -0.8110     0.0440 cp         1 3UP      -0.057000
     23 C23          3.2170    -1.5180     0.9410 ca         1 3UP      -0.114000
     24 C24          3.2300    -2.9050     0.9510 ca         1 3UP      -0.131000
     25 C25          4.0410    -3.6010     0.0640 ca         1 3UP      -0.119000
     26 C26          4.8440    -2.9050    -0.8290 ca         1 3UP      -0.131000
     27 C27          4.8360    -1.5170    -0.8370 ca         1 3UP      -0.114000
     28 H1          -2.0980     1.6370     0.5600 ha         1 3UP       0.159000
     29 H2          -1.5470    -2.9870    -0.8480 h4         1 3UP       0.027100
     30 H3           0.4760    -1.6730    -0.4300 ha         1 3UP       0.147000
     31 H4          -4.3060     1.2700     0.4240 hn         1 3UP       0.322500
     32 H5           1.6270     0.0080    -0.9490 hn         1 3UP       0.333500
     33 H6          -6.3840     1.6720     0.4720 hc         1 3UP       0.084700
     34 H7          -7.9340    -0.9770     0.8650 hc         1 3UP       0.083450
     35 H8          -8.4530     0.6850     1.4070 hc         1 3UP       0.083450
     36 H9          -8.3730     1.4800    -0.9840 hc         1 3UP       0.083450
     37 H10         -7.8580    -0.1870    -1.5140 hc         1 3UP       0.083450
     38 H11          2.0550     3.4100    -0.1980 h4         1 3UP       0.038100
     39 H12          6.1290     3.3080     0.2920 h4         1 3UP       0.023100
     40 H13          6.1620     0.8380     0.2640 ha         1 3UP       0.146000
     41 H14          2.5980    -0.9850     1.6520 ha         1 3UP       0.139000
     42 H15          2.6110    -3.4410     1.6580 ha         1 3UP       0.136000
     43 H16          4.0480    -4.6840     0.0710 ha         1 3UP       0.135000
     44 H17          5.4780    -3.4420    -1.5220 ha         1 3UP       0.136000
     45 H18          5.4590    -0.9780    -1.5400 ha         1 3UP       0.139000
@<TRIPOS>BOND
     1     1     2 ar  
     2     1     6 ar  
     3     1     7 1   
     4     2     3 ar  
     5     2    28 1   
     6     3     4 ar  
     7     3     8 1   
     8     4     5 ar  
     9     5     6 ar  
    10     5    29 1   
    11     6    30 1   
    12     7     9 1   
    13     7    10 2   
    14     8    11 1   
    15     8    31 1   
    16     9    16 1   
    17     9    32 1   
    18    11    12 1   
    19    11    13 2   
    20    12    14 1   
    21    12    15 1   
    22    12    33 1   
    23    14    15 1   
    24    14    34 1   
    25    14    35 1   
    26    15    36 1   
    27    15    37 1   
    28    16    17 ar  
    29    16    21 ar  
    30    17    18 ar  
    31    17    38 1   
    32    18    19 ar  
    33    19    20 ar  
    34    19    39 1   
    35    20    21 ar  
    36    20    40 1   
    37    21    22 1   
    38    22    23 ar  
    39    22    27 ar  
    40    23    24 ar  
    41    23    41 1   
    42    24    25 ar  
    43    24    42 1   
    44    25    26 ar  
    45    25    43 1   
    46    26    27 ar  
    47    26    44 1   
    48    27    45 1   
@<TRIPOS>SUBSTRUCTURE
     1 3UP         1 TEMP              0 ****  ****    0 ROOT
