@<TRIPOS>MOLECULE
3UR
   50    54     1     0     0
SMALL
abcg2


@<TRIPOS>ATOM
      1 C14        -20.4460   -41.2720     3.5220 ca         1 3UR      -0.167000
      2 C8         -20.3470   -40.2200     4.4240 ca         1 3UR      -0.061000
      3 C9         -20.2600   -38.9110     3.9640 ca         1 3UR      -0.167000
      4 C10        -20.2730   -38.6850     2.6010 ca         1 3UR       0.192000
      5 C11        -20.3710   -39.6960     1.6410 cp         1 3UR      -0.093000
      6 C12        -20.4550   -40.9860     2.1700 ca         1 3UR       0.192000
      7 F1         -20.2080   -37.4000     2.1790 f          1 3UR      -0.174000
      8 F2         -20.5210   -42.0270     1.3060 f          1 3UR      -0.174000
      9 C15        -15.3260   -35.2910    -1.7950 ca         1 3UR       0.236900
     10 C16        -16.2890   -35.6000    -0.7920 ca         1 3UR       0.578900
     11 N2         -17.3410   -36.3570    -1.1150 nb         1 3UR      -0.720000
     12 C17        -17.4660   -36.7920    -2.3760 ca         1 3UR       0.426800
     13 C13        -16.5200   -36.4760    -3.3470 ca         1 3UR       0.223900
     14 N3         -15.4590   -35.7220    -3.0360 nb         1 3UR      -0.601000
     15 N4         -16.2120   -35.1210     0.4850 nh         1 3UR      -0.758300
     16 C18        -14.9450   -34.7000     1.0750 c6         1 3UR       0.211800
     17 C19        -14.2750   -35.8790     1.7920 c6         1 3UR       0.132500
     18 C20        -15.2230   -36.4510     2.8460 c6         1 3UR      -0.078400
     19 C21        -16.5940   -36.7890     2.2540 c6         1 3UR      -0.105400
     20 C22        -17.1620   -35.5870     1.4980 c6         1 3UR       0.207800
     21 C1         -20.3680   -39.4290     0.1850 cp         1 3UR      -0.064000
     22 C2         -19.4120   -38.5990    -0.3590 ca         1 3UR      -0.012000
     23 C3         -19.4250   -38.3730    -1.7470 ca         1 3UR      -0.106000
     24 C4         -20.3980   -39.0080    -2.5790 ca         1 3UR      -0.066000
     25 C5         -21.3830   -39.8450    -2.0090 ca         1 3UR      -0.086000
     26 C6         -21.3550   -40.0370    -0.6530 ca         1 3UR      -0.074000
     27 C7         -18.6230   -37.6350    -2.6360 cc         1 3UR      -0.155900
     28 N1         -19.1450   -37.8740    -3.8600 na         1 3UR       0.013500
     29 N5         -20.2130   -38.6870    -3.8760 nc         1 3UR      -0.266400
     30 N6         -13.0350   -35.4170     2.4200 n8         1 3UR      -1.004200
     31 H1         -20.5060   -42.3010     3.8500 ha         1 3UR       0.137000
     32 H2         -20.3370   -40.4190     5.4870 ha         1 3UR       0.123000
     33 H3         -20.1870   -38.0720     4.6420 ha         1 3UR       0.137000
     34 H5         -16.5930   -36.8400    -4.3640 h4         1 3UR       0.025100
     35 H6         -14.2840   -34.2790     0.3230 h1         1 3UR       0.065700
     36 H7         -15.1540   -33.9110     1.8030 h1         1 3UR       0.065700
     37 H8         -14.0940   -36.6570     1.0350 h1         1 3UR       0.023700
     38 H9         -14.7740   -37.3380     3.3020 hc         1 3UR       0.050200
     39 H10        -15.3400   -35.7050     3.6400 hc         1 3UR       0.050200
     40 H11        -17.2890   -37.0850     3.0430 hc         1 3UR       0.054200
     41 H12        -16.5100   -37.6340     1.5650 hc         1 3UR       0.054200
     42 H13        -17.3230   -34.7570     2.1910 h1         1 3UR       0.072700
     43 H14        -18.1060   -35.8260     1.0210 h1         1 3UR       0.072700
     44 H15        -18.6590   -38.1340     0.2570 ha         1 3UR       0.133000
     45 H16        -22.1350   -40.3180    -2.6270 ha         1 3UR       0.130000
     46 H17        -22.1040   -40.6670    -0.1930 ha         1 3UR       0.118000
     47 H18        -18.8270   -37.4780    -4.7330 hn         1 3UR       0.374000
     48 H19        -12.6170   -36.1770     2.9490 hn         1 3UR       0.400500
     49 H20        -12.3590   -35.1640     1.7060 hn         1 3UR       0.400500
     50 H4         -14.4560   -34.6880    -1.5810 h4         1 3UR       0.031100
@<TRIPOS>BOND
     1     1     2 ar  
     2     1     6 ar  
     3     1    31 1   
     4     2     3 ar  
     5     2    32 1   
     6     3     4 ar  
     7     3    33 1   
     8     4     5 ar  
     9     4     7 1   
    10     5     6 ar  
    11     5    21 1   
    12     6     8 1   
    13     9    10 ar  
    14     9    14 ar  
    15     9    50 1   
    16    10    11 ar  
    17    10    15 1   
    18    11    12 ar  
    19    12    13 ar  
    20    12    27 1   
    21    13    14 ar  
    22    13    34 1   
    23    15    16 1   
    24    15    20 1   
    25    16    17 1   
    26    16    35 1   
    27    16    36 1   
    28    17    18 1   
    29    17    30 1   
    30    17    37 1   
    31    18    19 1   
    32    18    38 1   
    33    18    39 1   
    34    19    20 1   
    35    19    40 1   
    36    19    41 1   
    37    20    42 1   
    38    20    43 1   
    39    21    22 ar  
    40    21    26 ar  
    41    22    23 ar  
    42    22    44 1   
    43    23    24 ar  
    44    23    27 2   
    45    24    25 ar  
    46    24    29 2   
    47    25    26 ar  
    48    25    45 1   
    49    26    46 1   
    50    27    28 1   
    51    28    29 1   
    52    28    47 1   
    53    30    48 1   
    54    30    49 1   
@<TRIPOS>SUBSTRUCTURE
     1 3UR         1 TEMP              0 ****  ****    0 ROOT
