@<TRIPOS>MOLECULE
3UR
   50    54     1     0     0
SMALL
No Charge or Current Charge


@<TRIPOS>ATOM
      1 C14        -20.3880   -41.6790     3.2820 ca         1 3UR      -0.167000
      2 C8         -20.0510   -40.7210     4.2500 ca         1 3UR      -0.061000
      3 C9         -19.8470   -39.3880     3.8630 ca         1 3UR      -0.167000
      4 C10        -19.9790   -39.0150     2.5160 ca         1 3UR       0.192000
      5 C11        -20.3200   -39.9650     1.5160 cp         1 3UR      -0.093000
      6 C12        -20.5210   -41.3070     1.9340 ca         1 3UR       0.192000
      7 F1         -19.7980   -37.7140     2.1930 f          1 3UR      -0.174000
      8 F2         -20.8220   -42.2680     1.0320 f          1 3UR      -0.174000
      9 C15        -15.3060   -35.4930    -2.0310 ca         1 3UR       0.236900
     10 C16        -16.1490   -35.9560    -0.9650 ca         1 3UR       0.578900
     11 N2         -17.2640   -36.6770    -1.2160 nb         1 3UR      -0.720000
     12 C17        -17.5420   -36.9500    -2.5190 ca         1 3UR       0.426800
     13 C13        -16.6970   -36.4770    -3.5700 ca         1 3UR       0.223900
     14 N3         -15.5710   -35.7450    -3.3440 nb         1 3UR      -0.601000
     15 N4         -15.9010   -35.7310     0.4160 nh         1 3UR      -0.758300
     16 C18        -14.5840   -35.1950     0.8870 c6         1 3UR       0.211800
     17 C19        -14.2060   -35.7240     2.3130 c6         1 3UR       0.132500
     18 C20        -15.3540   -35.4670     3.3180 c6         1 3UR      -0.078400
     19 C21        -16.6730   -36.0720     2.7830 c6         1 3UR      -0.105400
     20 C22        -17.0250   -35.5150     1.3830 c6         1 3UR       0.207800
     21 C1         -20.4530   -39.5670     0.0780 cp         1 3UR      -0.064000
     22 C2         -19.4330   -38.8170    -0.5620 ca         1 3UR      -0.012000
     23 C3         -19.5970   -38.4520    -1.9090 ca         1 3UR      -0.106000
     24 C4         -20.7030   -38.8110    -2.6410 ca         1 3UR      -0.066000
     25 C5         -21.7280   -39.5570    -2.0400 ca         1 3UR      -0.086000
     26 C6         -21.6000   -39.9290    -0.6850 ca         1 3UR      -0.074000
     27 C7         -18.7640   -37.7180    -2.8140 cc         1 3UR      -0.155900
     28 N1         -19.4520   -37.6800    -4.0270 na         1 3UR       0.013500
     29 N5         -20.6730   -38.3640    -3.9640 nc         1 3UR      -0.266400
     30 N6         -12.9420   -35.1380     2.8250 n8         1 3UR      -1.004200
     31 H1         -20.5430   -42.7160     3.5720 ha         1 3UR       0.137000
     32 H2         -19.9480   -41.0110     5.2950 ha         1 3UR       0.123000
     33 H3         -19.5900   -38.6380     4.6070 ha         1 3UR       0.137000
     34 H5         -16.9240   -36.6930    -4.6120 h4         1 3UR       0.025100
     35 H6         -13.7770   -35.4890     0.2010 h1         1 3UR       0.065700
     36 H7         -14.6140   -34.0950     0.9050 h1         1 3UR       0.065700
     37 H8         -14.0480   -36.8110     2.2470 h1         1 3UR       0.023700
     38 H9         -15.1130   -35.9100     4.2940 hc         1 3UR       0.050200
     39 H10        -15.4810   -34.3880     3.4800 hc         1 3UR       0.050200
     40 H11        -17.4940   -35.8580     3.4810 hc         1 3UR       0.054200
     41 H12        -16.5880   -37.1660     2.7290 hc         1 3UR       0.054200
     42 H13        -17.2440   -34.4400     1.4670 h1         1 3UR       0.072700
     43 H14        -17.9550   -36.0000     1.0530 h1         1 3UR       0.072700
     44 H15        -18.5370   -38.5430    -0.0120 ha         1 3UR       0.133000
     45 H16        -22.6100   -39.8420    -2.6090 ha         1 3UR       0.130000
     46 H17        -22.4000   -40.4970    -0.2170 ha         1 3UR       0.118000
     47 H18        -19.1670   -37.2110    -4.8840 hn         1 3UR       0.374000
     48 H19        -12.7570   -35.5190     3.7610 hn         1 3UR       0.400500
     49 H20        -12.1560   -35.4960     2.2680 hn         1 3UR       0.400500
     50 H4         -14.4130   -34.9040    -1.8320 h4         1 3UR       0.031100
@<TRIPOS>BOND
     1     1     2 ar  
     2     1     6 ar  
     3     1    31 1   
     4     2     3 ar  
     5     2    32 1   
     6     3     4 ar  
     7     3    33 1   
     8     4     5 ar  
     9     4     7 1   
    10     5     6 ar  
    11     5    21 1   
    12     6     8 1   
    13     9    10 ar  
    14     9    14 ar  
    15     9    50 1   
    16    10    11 ar  
    17    10    15 1   
    18    11    12 ar  
    19    12    13 ar  
    20    12    27 1   
    21    13    14 ar  
    22    13    34 1   
    23    15    16 1   
    24    15    20 1   
    25    16    17 1   
    26    16    35 1   
    27    16    36 1   
    28    17    18 1   
    29    17    30 1   
    30    17    37 1   
    31    18    19 1   
    32    18    38 1   
    33    18    39 1   
    34    19    20 1   
    35    19    40 1   
    36    19    41 1   
    37    20    42 1   
    38    20    43 1   
    39    21    22 ar  
    40    21    26 ar  
    41    22    23 ar  
    42    22    44 1   
    43    23    24 ar  
    44    23    27 2   
    45    24    25 ar  
    46    24    29 2   
    47    25    26 ar  
    48    25    45 1   
    49    26    46 1   
    50    27    28 1   
    51    28    29 1   
    52    28    47 1   
    53    30    48 1   
    54    30    49 1   
@<TRIPOS>SUBSTRUCTURE
     1 3UR         1 TEMP              0 ****  ****    0 ROOT
