@<TRIPOS>MOLECULE
3US
   98   101     1     0     0
SMALL
abcg2


@<TRIPOS>ATOM
      1 C4           4.5830     2.4050     0.6210 ca         1 3US       0.143500
      2 C3           5.2480     1.3570     0.0070 ca         1 3US      -0.100600
      3 C1           3.4880     1.6580    -1.1180 cc         1 3US       0.402700
      4 OBA         -7.5170     0.2560    -1.4690 o          1 3US      -0.622100
      5 CAY         -6.9590    -0.5330    -0.7210 c          1 3US       0.655100
      6 NAZ         -7.6320    -1.4620     0.0400 ns         1 3US      -0.164000
      7 CBB         -9.0180    -1.6050     0.1290 ca         1 3US      -0.015000
      8 CBG         -9.5570    -2.0460     1.3390 ca         1 3US      -0.143000
      9 CBF        -10.9180    -2.2430     1.4800 ca         1 3US      -0.084500
     10 CBC         -9.8900    -1.3830    -0.9340 ca         1 3US      -0.143000
     11 CBD        -11.2570    -1.5760    -0.7690 ca         1 3US      -0.084500
     12 CBE        -11.8110    -2.0050     0.4330 ca         1 3US      -0.088300
     13 CBH        -13.3060    -2.2130     0.6390 c3         1 3US       0.005300
     14 CBK        -13.7970    -1.2860     1.7600 c3         1 3US      -0.082767
     15 CBJ        -14.1110    -1.9080    -0.6250 c3         1 3US      -0.082767
     16 CBI        -13.5750    -3.6710     1.0340 c3         1 3US      -0.082767
     17 NAX         -5.6160    -0.5660    -0.5500 ns         1 3US      -0.522900
     18 CAW         -4.7260     0.2830    -1.3100 c3         1 3US       0.112000
     19 CAV         -3.3560     0.3400    -0.6490 c3         1 3US      -0.098400
     20 CAT         -2.4170     1.2350    -1.4480 c3         1 3US       0.197800
     21 NAS         -1.1390     1.4980    -0.8080 n3         1 3US      -0.755600
     22 CAU         -0.2250     0.3570    -0.6560 c3         1 3US       0.199500
     23 CBL         -0.3890    -0.3340     0.6950 c3         1 3US      -0.100100
     24 CBM         -0.2560    -0.6460    -1.8090 c3         1 3US      -0.100100
     25 CAN          0.1100     3.5630    -0.2180 c5         1 3US       0.160300
     26 CAM          0.6730     4.8780    -0.7470 c5         1 3US       0.110300
     27 OAQ          0.6210     5.8380     0.2770 oh         1 3US      -0.701000
     28 CAL          2.1180     4.4790    -1.0480 c5         1 3US       0.082300
     29 OAP          3.0360     5.5300    -1.0790 oh         1 3US      -0.692000
     30 CAK          2.4170     3.5670     0.1400 c5         1 3US       0.314300
     31 OAO          1.2120     2.9230     0.4440 os         1 3US      -0.440000
     32 NAG          3.4490     2.5930    -0.1180 na         1 3US      -0.286300
     33 N2           4.5440     0.9020    -1.0770 nd         1 3US      -0.554100
     34 N5           4.9880     3.0740     1.6990 nb         1 3US      -0.213000
     35 C6           6.1470     2.6260     2.1450 ca         1 3US       0.182900
     36 C7           6.4790     0.9740     0.5770 ca         1 3US       0.447900
     37 N8           6.9010     1.6440     1.6540 nb         1 3US      -0.300000
     38 N9           7.2110    -0.0250     0.0780 nu         1 3US      -0.911100
     39 C10          8.5300    -0.3880     0.5500 c3         1 3US       0.227800
     40 C11          8.8790    -1.8040     0.1190 c3         1 3US      -0.092400
     41 C12         10.2950    -2.1800     0.5310 c3         1 3US      -0.093400
     42 C13         10.6480    -3.5980     0.1140 c3         1 3US       0.105000
     43 N15         12.0130    -3.9100     0.4860 ns         1 3US      -0.511900
     44 C16         12.5890    -5.0920     0.2280 c          1 3US       0.599100
     45 O17         11.9960    -5.9990    -0.3450 o          1 3US      -0.609100
     46 C18         14.0150    -5.2420     0.6950 c3         1 3US      -0.179100
     47 H1           2.7060     1.5760    -1.8570 h5         1 3US       0.061800
     48 H2          -7.1110    -1.9020     0.7830 hn         1 3US       0.142000
     49 H3          -8.9020    -2.2320     2.1820 ha         1 3US       0.122000
     50 H4         -11.2830    -2.5840     2.4410 ha         1 3US       0.112000
     51 H5          -9.5200    -1.0670    -1.8970 ha         1 3US       0.122000
     52 H6         -11.8900    -1.3860    -1.6250 ha         1 3US       0.112000
     53 H7         -13.6050    -0.2390     1.5210 hc         1 3US       0.034700
     54 H8         -14.8730    -1.4060     1.9080 hc         1 3US       0.034700
     55 H9         -13.3090    -1.5060     2.7110 hc         1 3US       0.034700
     56 H10        -13.8240    -2.5550    -1.4570 hc         1 3US       0.034700
     57 H11        -15.1720    -2.0760    -0.4350 hc         1 3US       0.034700
     58 H12        -13.9950    -0.8710    -0.9470 hc         1 3US       0.034700
     59 H13        -13.0490    -3.9550     1.9470 hc         1 3US       0.034700
     60 H14        -14.6420    -3.8250     1.2100 hc         1 3US       0.034700
     61 H15        -13.2630    -4.3570     0.2440 hc         1 3US       0.034700
     62 H16         -5.2020    -1.3560    -0.0810 hn         1 3US       0.306500
     63 H17         -4.6230    -0.0750    -2.3420 h1         1 3US       0.050700
     64 H18         -5.1520     1.2860    -1.3650 h1         1 3US       0.050700
     65 H19         -3.4530     0.7280     0.3680 hc         1 3US       0.054200
     66 H20         -2.9610    -0.6760    -0.5710 hc         1 3US       0.054200
     67 H21         -2.3110     0.8280    -2.4650 h1         1 3US       0.028200
     68 H22         -2.9200     2.1980    -1.5670 h1         1 3US       0.028200
     69 H24          0.7790     0.7810    -0.6480 h1         1 3US       0.053700
     70 H25         -1.3410    -0.8550     0.7870 hc         1 3US       0.037700
     71 H26          0.4020    -1.0730     0.8410 hc         1 3US       0.037700
     72 H27         -0.3220     0.3950     1.5030 hc         1 3US       0.037700
     73 H28         -0.1260    -0.1570    -2.7760 hc         1 3US       0.037700
     74 H29          0.5580    -1.3610    -1.6900 hc         1 3US       0.037700
     75 H30         -1.1860    -1.2160    -1.8420 hc         1 3US       0.037700
     76 H31          0.2660     2.4720    -2.0880 h1         1 3US       0.031200
     77 H32         -1.2380     3.3140    -1.8150 h1         1 3US       0.031200
     78 H33         -0.6700     3.7450     0.5270 h1         1 3US       0.107700
     79 H34          0.1460     5.2160    -1.6480 h1         1 3US       0.053700
     80 H35          1.2480     6.5380     0.0630 ho         1 3US       0.522000
     81 H36          2.1330     3.9010    -1.9800 h1         1 3US       0.049700
     82 H37          3.0200     5.9310    -1.9540 ho         1 3US       0.514000
     83 H38          2.7770     4.1570     0.9890 h2         1 3US       0.124700
     84 H39          6.5450     3.1220     3.0230 h5         1 3US       0.046100
     85 H40          6.9020    -0.4270    -0.7930 hn         1 3US       0.509000
     86 H41          9.2810     0.3140     0.1710 h1         1 3US       0.056700
     87 H42          8.5470    -0.3120     1.6380 h1         1 3US       0.056700
     88 H43          8.1620    -2.5020     0.5580 hc         1 3US       0.051700
     89 H44          8.7830    -1.8900    -0.9680 hc         1 3US       0.051700
     90 H45         11.0050    -1.4810     0.0780 hc         1 3US       0.046200
     91 H46         10.4030    -2.0820     1.6160 hc         1 3US       0.046200
     92 H47          9.9600    -4.3060     0.5850 h1         1 3US       0.052200
     93 H48         10.5250    -3.7080    -0.9670 h1         1 3US       0.052200
     94 H49         12.5440    -3.2030     0.9670 hn         1 3US       0.311500
     95 H50         14.4480    -4.3210     1.0790 hc         1 3US       0.059367
     96 H51         14.0600    -5.9960     1.4820 hc         1 3US       0.059367
     97 H52         14.6320    -5.5980    -0.1300 hc         1 3US       0.059367
     98 CAR         -0.4910     2.6920    -1.3180 c3         1 3US       0.179800
@<TRIPOS>BOND
     1     1     2 ar  
     2     1    32 1   
     3     1    34 ar  
     4     2    33 1   
     5     2    36 ar  
     6     3    32 1   
     7     3    33 2   
     8     3    47 1   
     9     4     5 2   
    10     5     6 1   
    11     5    17 1   
    12     6     7 1   
    13     6    48 1   
    14     7     8 ar  
    15     7    10 ar  
    16     8     9 ar  
    17     8    49 1   
    18     9    12 ar  
    19     9    50 1   
    20    10    11 ar  
    21    10    51 1   
    22    11    12 ar  
    23    11    52 1   
    24    12    13 1   
    25    13    14 1   
    26    13    15 1   
    27    13    16 1   
    28    14    53 1   
    29    14    54 1   
    30    14    55 1   
    31    15    56 1   
    32    15    57 1   
    33    15    58 1   
    34    16    59 1   
    35    16    60 1   
    36    16    61 1   
    37    17    18 1   
    38    17    62 1   
    39    18    19 1   
    40    18    63 1   
    41    18    64 1   
    42    19    20 1   
    43    19    65 1   
    44    19    66 1   
    45    20    21 1   
    46    20    67 1   
    47    20    68 1   
    48    21    22 1   
    49    21    98 1   
    50    22    23 1   
    51    22    24 1   
    52    22    69 1   
    53    23    70 1   
    54    23    71 1   
    55    23    72 1   
    56    24    73 1   
    57    24    74 1   
    58    24    75 1   
    59    25    26 1   
    60    25    31 1   
    61    25    78 1   
    62    25    98 1   
    63    26    27 1   
    64    26    28 1   
    65    26    79 1   
    66    27    80 1   
    67    28    29 1   
    68    28    30 1   
    69    28    81 1   
    70    29    82 1   
    71    30    31 1   
    72    30    32 1   
    73    30    83 1   
    74    34    35 ar  
    75    35    37 ar  
    76    35    84 1   
    77    36    37 ar  
    78    36    38 1   
    79    38    39 1   
    80    38    85 1   
    81    39    40 1   
    82    39    86 1   
    83    39    87 1   
    84    40    41 1   
    85    40    88 1   
    86    40    89 1   
    87    41    42 1   
    88    41    90 1   
    89    41    91 1   
    90    42    43 1   
    91    42    92 1   
    92    42    93 1   
    93    43    44 1   
    94    43    94 1   
    95    44    45 2   
    96    44    46 1   
    97    46    95 1   
    98    46    96 1   
    99    46    97 1   
   100    76    98 1   
   101    77    98 1   
@<TRIPOS>SUBSTRUCTURE
     1 3US         1 TEMP              0 ****  ****    0 ROOT
