@<TRIPOS>MOLECULE
3US
   98   101     1     0     0
SMALL
No Charge or Current Charge


@<TRIPOS>ATOM
      1 C4           3.5720     3.1300     0.2470 ca         1 3US       0.143500
      2 C3           4.3920     2.1300    -0.2110 ca         1 3US      -0.100600
      3 C1           3.9610     3.3370    -1.9380 cc         1 3US       0.402700
      4 OBA         -5.8600     0.1740    -1.3810 o          1 3US      -0.622100
      5 CAY         -5.4420    -0.9730    -1.4370 c          1 3US       0.655100
      6 NAZ         -6.1110    -2.0960    -0.9760 ns         1 3US      -0.164000
      7 CBB         -7.3710    -2.2660    -0.3380 ca         1 3US      -0.015000
      8 CBG         -7.7750    -3.5740    -0.0290 ca         1 3US      -0.143000
      9 CBF         -9.0070    -3.8190     0.6010 ca         1 3US      -0.084500
     10 CBC         -8.2270    -1.1990     0.0000 ca         1 3US      -0.143000
     11 CBD         -9.4600    -1.4410     0.6310 ca         1 3US      -0.084500
     12 CBE         -9.8760    -2.7580     0.9450 ca         1 3US      -0.088300
     13 CBH        -11.2290    -3.0710     1.6400 c3         1 3US       0.005300
     14 CBK        -10.9580    -3.8020     2.9830 c3         1 3US      -0.082767
     15 CBJ        -12.0650    -1.7970     1.9500 c3         1 3US      -0.082767
     16 CBI        -12.0790    -3.9870     0.7180 c3         1 3US      -0.082767
     17 NAX         -4.2210    -1.2860    -1.9900 ns         1 3US      -0.522900
     18 CAW         -3.2770    -0.3070    -2.5350 c3         1 3US       0.112000
     19 CAV         -2.4780     0.4100    -1.4290 c3         1 3US      -0.098400
     20 CAT         -1.4460     1.4040    -2.0000 c3         1 3US       0.197800
     21 NAS         -0.8720     2.4170    -1.0610 n3         1 3US      -0.755600
     22 CAU         -0.1290     1.8860     0.1330 c3         1 3US       0.199500
     23 CBL         -1.0370     1.3910     1.2830 c3         1 3US      -0.100100
     24 CBM          0.9710     0.8530    -0.2120 c3         1 3US      -0.100100
     25 CAN          0.0850     4.8480    -1.1020 c5         1 3US       0.160300
     26 CAM          0.4930     6.0060    -2.0650 c5         1 3US       0.110300
     27 OAQ          0.3730     7.3060    -1.4700 oh         1 3US      -0.701000
     28 CAL          1.9940     5.6530    -2.2940 c5         1 3US       0.082300
     29 OAP          2.7430     6.8090    -2.7190 oh         1 3US      -0.692000
     30 CAK          2.4280     5.0920    -0.8810 c5         1 3US       0.314300
     31 OAO          1.1940     4.8260    -0.1680 os         1 3US      -0.440000
     32 NAG          3.2780     3.8940    -0.8500 na         1 3US      -0.286300
     33 N2           4.6510     2.2390    -1.5800 nd         1 3US      -0.554100
     34 N5           3.2060     3.2210     1.5410 nb         1 3US      -0.213000
     35 C6           3.6890     2.2560     2.3580 ca         1 3US       0.182900
     36 C7           4.8490     1.1630     0.7080 ca         1 3US       0.447900
     37 N8           4.4930     1.2250     2.0060 nb         1 3US      -0.300000
     38 N9           5.6750     0.1230     0.3000 nu         1 3US      -0.911100
     39 C10          6.1960    -0.9830     1.1150 c3         1 3US       0.227800
     40 C11          7.0700    -1.9190     0.2570 c3         1 3US      -0.092400
     41 C12          7.6490    -3.1050     1.0590 c3         1 3US      -0.093400
     42 C13          8.5230    -4.0390     0.2010 c3         1 3US       0.105000
     43 N15          9.0570    -5.1510     0.9880 ns         1 3US      -0.511900
     44 C16          9.8720    -6.1360     0.4830 c          1 3US       0.599100
     45 O17         10.2230    -6.1630    -0.6870 o          1 3US      -0.609100
     46 C18         10.3040    -7.1910     1.4950 c3         1 3US      -0.179100
     47 H1           3.9250     3.7600    -2.9340 h5         1 3US       0.061800
     48 H2          -5.6100    -2.9630    -1.1150 hn         1 3US       0.142000
     49 H3          -7.1310    -4.4150    -0.2800 ha         1 3US       0.122000
     50 H4          -9.2800    -4.8470     0.8200 ha         1 3US       0.112000
     51 H5          -7.9580    -0.1700    -0.2140 ha         1 3US       0.122000
     52 H6         -10.0780    -0.5800     0.8680 ha         1 3US       0.112000
     53 H7         -10.3260    -3.1880     3.6360 hc         1 3US       0.034700
     54 H8         -11.8950    -4.0070     3.5150 hc         1 3US       0.034700
     55 H9         -10.4510    -4.7610     2.8280 hc         1 3US       0.034700
     56 H10        -12.3110    -1.2520     1.0300 hc         1 3US       0.034700
     57 H11        -13.0110    -2.0590     2.4390 hc         1 3US       0.034700
     58 H12        -11.5220    -1.1220     2.6230 hc         1 3US       0.034700
     59 H13        -11.5860    -4.9480     0.5350 hc         1 3US       0.034700
     60 H14        -13.0570    -4.1990     1.1690 hc         1 3US       0.034700
     61 H15        -12.2510    -3.5050    -0.2520 hc         1 3US       0.034700
     62 H16         -3.9580    -2.2640    -2.0010 hn         1 3US       0.306500
     63 H17         -2.5820    -0.8320    -3.2050 h1         1 3US       0.050700
     64 H18         -3.8290     0.4300    -3.1330 h1         1 3US       0.050700
     65 H19         -3.1720     0.9430    -0.7690 hc         1 3US       0.054200
     66 H20         -1.9620    -0.3540    -0.8400 hc         1 3US       0.054200
     67 H21         -0.6410     0.8340    -2.4820 h1         1 3US       0.028200
     68 H22         -1.9600     1.9450    -2.8070 h1         1 3US       0.028200
     69 H24          0.4030     2.7260     0.5910 h1         1 3US       0.053700
     70 H25         -1.4020     0.3730     1.1240 hc         1 3US       0.037700
     71 H26         -0.4740     1.3870     2.2230 hc         1 3US       0.037700
     72 H27         -1.8960     2.0600     1.4110 hc         1 3US       0.037700
     73 H28          1.6410     1.2320    -0.9900 hc         1 3US       0.037700
     74 H29          1.5770     0.6320     0.6750 hc         1 3US       0.037700
     75 H30          0.5360    -0.0900    -0.5630 hc         1 3US       0.037700
     76 H31          0.8560     3.0720    -2.1410 h1         1 3US       0.031200
     77 H32         -0.6690     3.6930    -2.7410 h1         1 3US       0.031200
     78 H33         -0.8420     5.0900    -0.5680 h1         1 3US       0.107700
     79 H34         -0.0760     5.9660    -3.0050 h1         1 3US       0.053700
     80 H35          1.2220     7.7540    -1.7110 ho         1 3US       0.522000
     81 H36          2.0600     4.8640    -3.0560 h1         1 3US       0.049700
     82 H37          2.7880     6.7950    -3.7060 ho         1 3US       0.514000
     83 H38          2.9880     5.8630    -0.3380 h2         1 3US       0.124700
     84 H39          3.3990     2.3140     3.4060 h5         1 3US       0.046100
     85 H40          5.8960     0.1390    -0.6960 hn         1 3US       0.509000
     86 H41          6.7960    -0.5880     1.9470 h1         1 3US       0.056700
     87 H42          5.3630    -1.5580     1.5450 h1         1 3US       0.056700
     88 H43          6.4710    -2.3070    -0.5770 hc         1 3US       0.051700
     89 H44          7.8960    -1.3420    -0.1780 hc         1 3US       0.051700
     90 H45          8.2490    -2.7180     1.8930 hc         1 3US       0.046200
     91 H46          6.8250    -3.6840     1.4940 hc         1 3US       0.046200
     92 H47          7.9260    -4.4460    -0.6270 h1         1 3US       0.052200
     93 H48          9.3620    -3.4720    -0.2250 h1         1 3US       0.052200
     94 H49          8.8190    -5.2110     1.9710 hn         1 3US       0.311500
     95 H50         10.7830    -6.6940     2.3460 hc         1 3US       0.059367
     96 H51          9.4110    -7.6300     1.9550 hc         1 3US       0.059367
     97 H52         10.9520    -7.9570     1.0560 hc         1 3US       0.059367
     98 CAR         -0.1170     3.4660    -1.8190 c3         1 3US       0.179800
@<TRIPOS>BOND
     1     1     2 ar  
     2     1    32 1   
     3     1    34 ar  
     4     2    33 1   
     5     2    36 ar  
     6     3    32 1   
     7     3    33 2   
     8     3    47 1   
     9     4     5 2   
    10     5     6 1   
    11     5    17 1   
    12     6     7 1   
    13     6    48 1   
    14     7     8 ar  
    15     7    10 ar  
    16     8     9 ar  
    17     8    49 1   
    18     9    12 ar  
    19     9    50 1   
    20    10    11 ar  
    21    10    51 1   
    22    11    12 ar  
    23    11    52 1   
    24    12    13 1   
    25    13    14 1   
    26    13    15 1   
    27    13    16 1   
    28    14    53 1   
    29    14    54 1   
    30    14    55 1   
    31    15    56 1   
    32    15    57 1   
    33    15    58 1   
    34    16    59 1   
    35    16    60 1   
    36    16    61 1   
    37    17    18 1   
    38    17    62 1   
    39    18    19 1   
    40    18    63 1   
    41    18    64 1   
    42    19    20 1   
    43    19    65 1   
    44    19    66 1   
    45    20    21 1   
    46    20    67 1   
    47    20    68 1   
    48    21    22 1   
    49    21    98 1   
    50    22    23 1   
    51    22    24 1   
    52    22    69 1   
    53    23    70 1   
    54    23    71 1   
    55    23    72 1   
    56    24    73 1   
    57    24    74 1   
    58    24    75 1   
    59    25    26 1   
    60    25    31 1   
    61    25    78 1   
    62    25    98 1   
    63    26    27 1   
    64    26    28 1   
    65    26    79 1   
    66    27    80 1   
    67    28    29 1   
    68    28    30 1   
    69    28    81 1   
    70    29    82 1   
    71    30    31 1   
    72    30    32 1   
    73    30    83 1   
    74    34    35 ar  
    75    35    37 ar  
    76    35    84 1   
    77    36    37 ar  
    78    36    38 1   
    79    38    39 1   
    80    38    85 1   
    81    39    40 1   
    82    39    86 1   
    83    39    87 1   
    84    40    41 1   
    85    40    88 1   
    86    40    89 1   
    87    41    42 1   
    88    41    90 1   
    89    41    91 1   
    90    42    43 1   
    91    42    92 1   
    92    42    93 1   
    93    43    44 1   
    94    43    94 1   
    95    44    45 2   
    96    44    46 1   
    97    46    95 1   
    98    46    96 1   
    99    46    97 1   
   100    76    98 1   
   101    77    98 1   
@<TRIPOS>SUBSTRUCTURE
     1 3US         1 TEMP              0 ****  ****    0 ROOT
