@<TRIPOS>MOLECULE
3UW
   47    51     1     0     0
SMALL
No Charge or Current Charge


@<TRIPOS>ATOM
      1 C1          25.2000    14.3610     8.9470 ca         1 3UW      -0.138300
      2 C2          26.0520    13.2850     8.5990 ca         1 3UW       0.170100
      3 C3          27.4420    13.4060     8.7360 ca         1 3UW      -0.146000
      4 C4          28.0090    14.6030     9.1970 ca         1 3UW      -0.056000
      5 C5          27.1920    15.7060     9.5380 cp         1 3UW      -0.076000
      6 C6          25.7880    15.5630     9.4000 ca         1 3UW      -0.026000
      7 C7          23.6700    14.2480     8.8150 c5         1 3UW       0.125500
      8 C8          23.2510    12.7530     8.6730 c6         1 3UW       0.157300
      9 C9          24.1900    12.0250     7.6750 c6         1 3UW       0.135300
     10 O10         25.5530    12.0880     8.1320 os         1 3UW      -0.344100
     11 O11         21.8690    12.6200     8.2440 os         1 3UW      -0.451000
     12 C12         21.4010    11.2560     8.1800 c6         1 3UW       0.155600
     13 C13         22.2440    10.4600     7.1540 c6         1 3UW      -0.110400
     14 C14         23.7530    10.5500     7.4970 c6         1 3UW      -0.073400
     15 C15         27.8040    16.9870    10.0150 cp         1 3UW      -0.089000
     16 C16         27.2790    17.7400    11.1050 ca         1 3UW       0.566200
     17 N17         27.8050    18.8980    11.5650 nb         1 3UW      -0.701000
     18 C18         28.9060    19.3700    10.9430 ca         1 3UW       0.361900
     19 C19         29.5130    18.7100     9.8620 ca         1 3UW      -0.177000
     20 C20         28.9630    17.5070     9.3910 ca         1 3UW      -0.056000
     21 F21         26.2000    17.3170    11.7990 f          1 3UW      -0.231200
     22 N22         22.9580    14.8420    10.0140 n2         1 3UW      -0.680900
     23 C23         22.2340    15.7580     9.5160 c2         1 3UW       0.674800
     24 N24         22.3210    15.9840     8.1630 n          1 3UW      -0.385300
     25 C25         23.1950    15.0870     7.5880 c          1 3UW       0.555000
     26 O26         23.5160    15.0390     6.4060 o          1 3UW      -0.509000
     27 C27         21.5800    16.9900     7.3720 c3         1 3UW       0.111300
     28 N28         21.4580    16.5880    10.2400 nv         1 3UW      -1.021200
     29 H1          28.0830    12.5670     8.4760 ha         1 3UW       0.131000
     30 H2          29.0890    14.6740     9.2970 ha         1 3UW       0.116000
     31 H3          25.1480    16.4090     9.6400 ha         1 3UW       0.123000
     32 H4          23.3580    12.2690     9.6550 h1         1 3UW       0.072700
     33 H5          24.1320    12.5280     6.6990 h1         1 3UW       0.082700
     34 H6          20.3430    11.2540     7.8810 h1         1 3UW       0.052200
     35 H7          21.4760    10.7970     9.1770 h1         1 3UW       0.052200
     36 H8          22.0650    10.8600     6.1460 hc         1 3UW       0.056700
     37 H9          21.9210     9.4110     7.1380 hc         1 3UW       0.056700
     38 H10         23.9530     9.9930     8.4230 hc         1 3UW       0.058700
     39 H11         24.3490    10.0740     6.7070 hc         1 3UW       0.058700
     40 H12         29.3170    20.3040    11.3240 h4         1 3UW       0.028100
     41 H13         30.3990    19.1340     9.3980 ha         1 3UW       0.130000
     42 H14         29.4200    16.9920     8.5480 ha         1 3UW       0.126000
     43 H15         20.5250    17.0010     7.6750 h1         1 3UW       0.047367
     44 H16         22.0160    17.9840     7.5370 h1         1 3UW       0.047367
     45 H17         21.6290    16.7540     6.3020 h1         1 3UW       0.047367
     46 H18         21.6480    16.5050    11.2320 hn         1 3UW       0.486500
     47 H19         21.4390    17.5410     9.9010 hn         1 3UW       0.486500
@<TRIPOS>BOND
     1     1     2 ar  
     2     1     6 ar  
     3     1     7 1   
     4     2     3 ar  
     5     2    10 1   
     6     3     4 ar  
     7     3    29 1   
     8     4     5 ar  
     9     4    30 1   
    10     5     6 ar  
    11     5    15 1   
    12     6    31 1   
    13     7     8 1   
    14     7    22 1   
    15     7    25 1   
    16     8     9 1   
    17     8    11 1   
    18     8    32 1   
    19     9    10 1   
    20     9    14 1   
    21     9    33 1   
    22    11    12 1   
    23    12    13 1   
    24    12    34 1   
    25    12    35 1   
    26    13    14 1   
    27    13    36 1   
    28    13    37 1   
    29    14    38 1   
    30    14    39 1   
    31    15    16 ar  
    32    15    20 ar  
    33    16    17 ar  
    34    16    21 1   
    35    17    18 ar  
    36    18    19 ar  
    37    18    40 1   
    38    19    20 ar  
    39    19    41 1   
    40    20    42 1   
    41    22    23 2   
    42    23    24 1   
    43    23    28 1   
    44    24    25 1   
    45    24    27 1   
    46    25    26 2   
    47    27    43 1   
    48    27    44 1   
    49    27    45 1   
    50    28    46 1   
    51    28    47 1   
@<TRIPOS>SUBSTRUCTURE
     1 3UW         1 TEMP              0 ****  ****    0 ROOT
