@<TRIPOS>MOLECULE
3UW
   47    51     1     0     0
SMALL
abcg2


@<TRIPOS>ATOM
      1 C1          25.2020    14.3550     8.9440 ca         1 3UW      -0.138300
      2 C2          26.0390    13.2950     8.5810 ca         1 3UW       0.170100
      3 C3          27.4220    13.4230     8.7160 ca         1 3UW      -0.146000
      4 C4          27.9710    14.6010     9.1870 ca         1 3UW      -0.056000
      5 C5          27.1540    15.6870     9.5350 cp         1 3UW      -0.076000
      6 C6          25.7750    15.5330     9.4100 ca         1 3UW      -0.026000
      7 C7          23.6900    14.2410     8.8360 c5         1 3UW       0.125500
      8 C8          23.3090    12.7680     8.6770 c6         1 3UW       0.157300
      9 C9          24.2130    12.0690     7.6680 c6         1 3UW       0.135300
     10 O10         25.5760    12.1000     8.1240 os         1 3UW      -0.344100
     11 O11         21.9550    12.6900     8.2700 os         1 3UW      -0.451000
     12 C12         21.4950    11.3370     8.1600 c6         1 3UW       0.155600
     13 C13         22.3120    10.5580     7.1410 c6         1 3UW      -0.110400
     14 C14         23.8000    10.6210     7.4920 c6         1 3UW      -0.073400
     15 C15         27.7610    16.9530     9.9930 cp         1 3UW      -0.089000
     16 C16         27.2160    17.7670    10.9930 ca         1 3UW       0.566200
     17 N17         27.7110    18.8880    11.4410 nb         1 3UW      -0.701000
     18 C18         28.8600    19.3230    10.9040 ca         1 3UW       0.361900
     19 C19         29.5180    18.6190     9.9100 ca         1 3UW      -0.177000
     20 C20         28.9590    17.4300     9.4560 ca         1 3UW      -0.056000
     21 F21         26.0690    17.3780    11.5990 f          1 3UW      -0.231200
     22 N22         23.0100    14.8260     9.9920 n2         1 3UW      -0.680900
     23 C23         22.2580    15.7750     9.5550 c2         1 3UW       0.674800
     24 N24         22.3240    15.9880     8.1690 n          1 3UW      -0.385300
     25 C25         23.1840    15.0710     7.6340 c          1 3UW       0.555000
     26 O26         23.4730    14.9730     6.4570 o          1 3UW      -0.509000
     27 C27         21.6010    16.9510     7.3540 c3         1 3UW       0.111300
     28 N28         21.4110    16.5090    10.3120 nv         1 3UW      -1.021200
     29 H1          28.0520    12.5840     8.4510 ha         1 3UW       0.131000
     30 H2          29.0450    14.6770     9.2940 ha         1 3UW       0.116000
     31 H3          25.1170    16.3480     9.6760 ha         1 3UW       0.123000
     32 H4          23.4360    12.2860     9.6560 h1         1 3UW       0.072700
     33 H5          24.1580    12.6010     6.7140 h1         1 3UW       0.082700
     34 H6          20.4470    11.4030     7.8700 h1         1 3UW       0.052200
     35 H7          21.5570    10.8580     9.1460 h1         1 3UW       0.052200
     36 H8          22.1420    10.9810     6.1470 hc         1 3UW       0.056700
     37 H9          21.9700     9.5210     7.1180 hc         1 3UW       0.056700
     38 H10         23.9840    10.0900     8.4310 hc         1 3UW       0.058700
     39 H11         24.4090    10.1520     6.7170 hc         1 3UW       0.058700
     40 H12         29.2500    20.2570    11.2880 h4         1 3UW       0.028100
     41 H13         30.4410    18.9940     9.4920 ha         1 3UW       0.130000
     42 H14         29.4440    16.8710     8.6670 ha         1 3UW       0.126000
     43 H15         21.0350    17.6290     7.9840 h1         1 3UW       0.047367
     44 H16         22.3080    17.5290     6.7610 h1         1 3UW       0.047367
     45 H17         20.9130    16.4330     6.6860 h1         1 3UW       0.047367
     46 H18         21.5380    16.4190    11.3090 hn         1 3UW       0.486500
     47 H19         21.1450    17.4300    10.0020 hn         1 3UW       0.486500
@<TRIPOS>BOND
     1     1     2 ar  
     2     1     6 ar  
     3     1     7 1   
     4     2     3 ar  
     5     2    10 1   
     6     3     4 ar  
     7     3    29 1   
     8     4     5 ar  
     9     4    30 1   
    10     5     6 ar  
    11     5    15 1   
    12     6    31 1   
    13     7     8 1   
    14     7    22 1   
    15     7    25 1   
    16     8     9 1   
    17     8    11 1   
    18     8    32 1   
    19     9    10 1   
    20     9    14 1   
    21     9    33 1   
    22    11    12 1   
    23    12    13 1   
    24    12    34 1   
    25    12    35 1   
    26    13    14 1   
    27    13    36 1   
    28    13    37 1   
    29    14    38 1   
    30    14    39 1   
    31    15    16 ar  
    32    15    20 ar  
    33    16    17 ar  
    34    16    21 1   
    35    17    18 ar  
    36    18    19 ar  
    37    18    40 1   
    38    19    20 ar  
    39    19    41 1   
    40    20    42 1   
    41    22    23 2   
    42    23    24 1   
    43    23    28 1   
    44    24    25 1   
    45    24    27 1   
    46    25    26 2   
    47    27    43 1   
    48    27    44 1   
    49    27    45 1   
    50    28    46 1   
    51    28    47 1   
@<TRIPOS>SUBSTRUCTURE
     1 3UW         1 TEMP              0 ****  ****    0 ROOT
