@<TRIPOS>MOLECULE
3UX
   50    54     1     0     0
SMALL
No Charge or Current Charge


@<TRIPOS>ATOM
      1 C1          -2.2400     1.1000     0.0940 cp         1 3UX      -0.075000
      2 C2          -1.9270     2.4690    -0.0720 ca         1 3UX      -0.057000
      3 C3          -0.5940     2.8930    -0.1760 ca         1 3UX      -0.150000
      4 C4           0.4540     1.9650    -0.1140 ca         1 3UX       0.177100
      5 C5           0.1800     0.5820     0.0320 ca         1 3UX      -0.136300
      6 C6          -1.1680     0.1740     0.1510 ca         1 3UX      -0.031000
      7 C7          -3.6650     0.6540     0.2190 cp         1 3UX      -0.102000
      8 O8           1.7450     2.4480    -0.2070 os         1 3UX      -0.345100
      9 C9           2.8510     1.6170     0.1960 c6         1 3UX       0.167000
     10 C10          2.6520     0.1820    -0.3870 c6         1 3UX       0.158300
     11 C11          1.3030    -0.4700     0.0610 c5         1 3UX       0.121500
     12 C12          4.1650     2.1990    -0.4030 c6         1 3UX      -0.074400
     13 C13          5.3680     1.2370    -0.1980 c6         1 3UX      -0.111400
     14 C14          5.0300    -0.1860    -0.7100 c6         1 3UX       0.153600
     15 O15          3.8050    -0.6580    -0.1070 os         1 3UX      -0.433000
     16 N16          1.3990    -1.1180     1.4300 n2         1 3UX      -0.678900
     17 C17          1.1780    -2.3470     1.2060 c2         1 3UX       0.669800
     18 N18          0.9020    -2.7260    -0.0870 n          1 3UX      -0.382300
     19 C19          0.9730    -1.6330    -0.9240 c          1 3UX       0.556000
     20 O20          0.7920    -1.6290    -2.1350 o          1 3UX      -0.490000
     21 N21          1.1140    -3.2950     2.1620 nv         1 3UX      -1.022200
     22 C22          2.8970     1.6710     1.7580 c3         1 3UX      -0.101100
     23 C23          0.6320    -4.0930    -0.5820 c3         1 3UX       0.097300
     24 C24         -4.5840     1.3890     1.0040 ca         1 3UX      -0.053000
     25 C25         -5.9120     0.9440     1.0990 ca         1 3UX      -0.181000
     26 C26         -6.3010    -0.2170     0.4120 ca         1 3UX       0.365900
     27 N27         -5.4520    -0.9370    -0.3520 nb         1 3UX      -0.707000
     28 C28         -4.1740    -0.5040    -0.4360 ca         1 3UX       0.577200
     29 F29         -3.3930    -1.2580    -1.2430 f          1 3UX      -0.221200
     30 H1          -2.7240     3.2070    -0.1260 ha         1 3UX       0.115000
     31 H2          -0.3700     3.9490    -0.2990 ha         1 3UX       0.130000
     32 H3          -1.3920    -0.8790     0.3020 ha         1 3UX       0.118000
     33 H4           2.5940     0.3000    -1.4800 h1         1 3UX       0.063700
     34 H5           4.0260     2.3770    -1.4790 hc         1 3UX       0.058200
     35 H6           4.3880     3.1790     0.0410 hc         1 3UX       0.058200
     36 H7           6.2500     1.6210    -0.7280 hc         1 3UX       0.053700
     37 H8           5.6430     1.1900     0.8650 hc         1 3UX       0.053700
     38 H9           4.9150    -0.1780    -1.8040 h1         1 3UX       0.050200
     39 H10          5.8440    -0.8800    -0.4580 h1         1 3UX       0.050200
     40 H11          1.0870    -2.8880     3.0890 hn         1 3UX       0.482000
     41 H12          0.4110    -4.0040     1.9990 hn         1 3UX       0.482000
     42 H13          1.9230     1.4500     2.2090 hc         1 3UX       0.053700
     43 H14          3.6150     0.9500     2.1660 hc         1 3UX       0.053700
     44 H15          3.1920     2.6650     2.1110 hc         1 3UX       0.053700
     45 H16          1.3590    -4.7960    -0.1550 h1         1 3UX       0.050367
     46 H17         -0.3810    -4.3980    -0.2910 h1         1 3UX       0.050367
     47 H18          0.7130    -4.1330    -1.6750 h1         1 3UX       0.050367
     48 H19         -4.2680     2.2820     1.5400 ha         1 3UX       0.125000
     49 H20         -6.6370     1.4860     1.6990 ha         1 3UX       0.130000
     50 H21         -7.3270    -0.5790     0.4720 h4         1 3UX       0.026100
@<TRIPOS>BOND
     1     1     2 ar  
     2     1     6 ar  
     3     1     7 1   
     4     2     3 ar  
     5     2    30 1   
     6     3     4 ar  
     7     3    31 1   
     8     4     5 ar  
     9     4     8 1   
    10     5     6 ar  
    11     5    11 1   
    12     6    32 1   
    13     7    24 ar  
    14     7    28 ar  
    15     8     9 1   
    16     9    10 1   
    17     9    12 1   
    18     9    22 1   
    19    10    11 1   
    20    10    15 1   
    21    10    33 1   
    22    11    16 1   
    23    11    19 1   
    24    12    13 1   
    25    12    34 1   
    26    12    35 1   
    27    13    14 1   
    28    13    36 1   
    29    13    37 1   
    30    14    15 1   
    31    14    38 1   
    32    14    39 1   
    33    16    17 2   
    34    17    18 1   
    35    17    21 1   
    36    18    19 1   
    37    18    23 1   
    38    19    20 2   
    39    21    40 1   
    40    21    41 1   
    41    22    42 1   
    42    22    43 1   
    43    22    44 1   
    44    23    45 1   
    45    23    46 1   
    46    23    47 1   
    47    24    25 ar  
    48    24    48 1   
    49    25    26 ar  
    50    25    49 1   
    51    26    27 ar  
    52    26    50 1   
    53    27    28 ar  
    54    28    29 1   
@<TRIPOS>SUBSTRUCTURE
     1 3UX         1 TEMP              0 ****  ****    0 ROOT
