@<TRIPOS>MOLECULE
3UX
   50    54     1     0     0
SMALL
bcc


@<TRIPOS>ATOM
      1 C1          -2.2280     1.1180     0.0640 cp         1 3UX      -0.075000
      2 C2          -1.9000     2.4700    -0.0590 ca         1 3UX      -0.075000
      3 C3          -0.5850     2.8810    -0.1280 ca         1 3UX      -0.168000
      4 C4           0.4490     1.9460    -0.0960 ca         1 3UX       0.177100
      5 C5           0.1470     0.5880     0.0130 ca         1 3UX      -0.136300
      6 C6          -1.1840     0.2010     0.1010 ca         1 3UX      -0.049000
      7 C7          -3.6390     0.7100     0.1800 cp         1 3UX      -0.167300
      8 O8           1.7040     2.4270    -0.1940 os         1 3UX      -0.321900
      9 C9           2.7740     1.5740     0.2390 c6         1 3UX       0.143800
     10 C10          2.5450     0.1960    -0.3890 c6         1 3UX       0.135100
     11 C11          1.2410    -0.4530     0.0730 c5         1 3UX       0.121500
     12 C12          4.0510     2.1380    -0.3790 c6         1 3UX      -0.074400
     13 C13          5.2040     1.1500    -0.2140 c6         1 3UX      -0.111400
     14 C14          4.8080    -0.2270    -0.7230 c6         1 3UX       0.130400
     15 O15          3.6030    -0.6730    -0.1370 os         1 3UX      -0.386600
     16 N16          1.3300    -1.0440     1.3900 n2         1 3UX      -0.678900
     17 C17          1.2030    -2.3030     1.2350 c2         1 3UX       0.669800
     18 N18          0.9650    -2.7330    -0.0670 n          1 3UX      -0.449300
     19 C19          0.9620    -1.6290    -0.8780 c          1 3UX       0.698500
     20 O20          0.8020    -1.6090    -2.0690 o          1 3UX      -0.565500
     21 N21          1.3200    -3.2270     2.2170 nv         1 3UX      -0.911800
     22 C22          2.8400     1.5770     1.7600 c3         1 3UX      -0.101100
     23 C23          0.8620    -4.0950    -0.5220 c3         1 3UX       0.097300
     24 C24         -4.5330     1.3940     0.9970 ca         1 3UX      -0.070000
     25 C25         -5.8610     1.0010     1.0700 ca         1 3UX      -0.264300
     26 C26         -6.2620    -0.0860     0.3160 ca         1 3UX       0.431200
     27 N27         -5.4280    -0.7560    -0.4720 nb         1 3UX      -0.707000
     28 C28         -4.1910    -0.3640    -0.5230 ca         1 3UX       0.642500
     29 F29         -3.4000    -1.0610    -1.3380 f          1 3UX      -0.221200
     30 H1          -2.6830     3.2160    -0.1090 ha         1 3UX       0.133000
     31 H2          -0.3470     3.9340    -0.2160 ha         1 3UX       0.148000
     32 H3          -1.4030    -0.8540     0.2200 ha         1 3UX       0.136000
     33 H4           2.4390     0.3670    -1.4760 h1         1 3UX       0.063700
     34 H5           3.8770     2.3130    -1.4460 hc         1 3UX       0.058200
     35 H6           4.3010     3.1030     0.0680 hc         1 3UX       0.058200
     36 H7           6.0770     1.5010    -0.7690 hc         1 3UX       0.053700
     37 H8           5.5080     1.0860     0.8340 hc         1 3UX       0.053700
     38 H9           4.7080    -0.2040    -1.8180 h1         1 3UX       0.050200
     39 H10          5.5670    -0.9710    -0.4800 h1         1 3UX       0.050200
     40 H11          1.3770    -2.8460     3.1460 hn         1 3UX       0.426800
     41 H12          0.8040    -4.0870     2.1480 hn         1 3UX       0.426800
     42 H13          1.9000     1.2810     2.2190 hc         1 3UX       0.053700
     43 H14          3.5940     0.8810     2.1210 hc         1 3UX       0.053700
     44 H15          3.0990     2.5750     2.1180 hc         1 3UX       0.053700
     45 H16          1.7190    -4.6810    -0.1910 h1         1 3UX       0.050367
     46 H17         -0.0570    -4.5710    -0.1740 h1         1 3UX       0.050367
     47 H18          0.8450    -4.0910    -1.6090 h1         1 3UX       0.050367
     48 H19         -4.1790     2.2290     1.5880 ha         1 3UX       0.143000
     49 H20         -6.5640     1.5190     1.7070 ha         1 3UX       0.148000
     50 H21         -7.2860    -0.4370     0.3390 h4         1 3UX       0.026100
@<TRIPOS>BOND
     1     1     2 ar  
     2     1     6 ar  
     3     1     7 1   
     4     2     3 ar  
     5     2    30 1   
     6     3     4 ar  
     7     3    31 1   
     8     4     5 ar  
     9     4     8 1   
    10     5     6 ar  
    11     5    11 1   
    12     6    32 1   
    13     7    24 ar  
    14     7    28 ar  
    15     8     9 1   
    16     9    10 1   
    17     9    12 1   
    18     9    22 1   
    19    10    11 1   
    20    10    15 1   
    21    10    33 1   
    22    11    16 1   
    23    11    19 1   
    24    12    13 1   
    25    12    34 1   
    26    12    35 1   
    27    13    14 1   
    28    13    36 1   
    29    13    37 1   
    30    14    15 1   
    31    14    38 1   
    32    14    39 1   
    33    16    17 2   
    34    17    18 1   
    35    17    21 1   
    36    18    19 1   
    37    18    23 1   
    38    19    20 2   
    39    21    40 1   
    40    21    41 1   
    41    22    42 1   
    42    22    43 1   
    43    22    44 1   
    44    23    45 1   
    45    23    46 1   
    46    23    47 1   
    47    24    25 ar  
    48    24    48 1   
    49    25    26 ar  
    50    25    49 1   
    51    26    27 ar  
    52    26    50 1   
    53    27    28 ar  
    54    28    29 1   
@<TRIPOS>SUBSTRUCTURE
     1 3UX         1 TEMP              0 ****  ****    0 ROOT
