@<TRIPOS>MOLECULE
3UY
   47    51     1     0     0
SMALL
abcg2


@<TRIPOS>ATOM
      1 C1          27.4470    14.6440     9.0930 ca         1 3UY      -0.060000
      2 C2          26.7230    15.8280     9.2960 cp         1 3UY      -0.075000
      3 C3          25.3590    15.8170     9.0080 ca         1 3UY      -0.037000
      4 C4          24.7070    14.6840     8.5280 ca         1 3UY      -0.150300
      5 C5          25.4500    13.5110     8.3560 ca         1 3UY       0.166100
      6 C6          26.8190    13.5020     8.6360 ca         1 3UY      -0.148000
      7 C7          27.4120    17.0460     9.7650 cp         1 3UY      -0.093000
      8 O8          24.9170    12.3450     7.9020 os         1 3UY      -0.356100
      9 C9          23.4770    12.1900     8.0200 c6         1 3UY       0.166000
     10 C10         22.8360    13.4680     7.4630 c6         1 3UY       0.159300
     11 C11         23.2170    14.7430     8.2200 c5         1 3UY       0.188500
     12 C12         22.8240    15.9850     7.3640 c5         1 3UY       0.133600
     13 O13         22.0990    16.8380     8.2790 os         1 3UY      -0.472600
     14 C14         21.9180    16.0980     9.4050 c2         1 3UY       0.784500
     15 N15         22.4490    14.9370     9.4640 n2         1 3UY      -0.695900
     16 N16         21.2250    16.7310    10.3830 nv         1 3UY      -1.008200
     17 O17         21.4300    13.3490     7.3910 os         1 3UY      -0.440000
     18 C18         21.0330    12.3170     6.4810 c6         1 3UY       0.150600
     19 C19         21.5850    10.9630     6.9020 c6         1 3UY      -0.107400
     20 C20         23.1020    11.0370     7.0910 c6         1 3UY      -0.074400
     21 C21         23.1390    11.8840     9.4740 c3         1 3UY      -0.098100
     22 C22         26.8640    17.9530    10.6810 ca         1 3UY       0.569200
     23 N23         27.4300    19.0360    11.1380 nb         1 3UY      -0.699000
     24 C24         28.6620    19.3300    10.6990 ca         1 3UY       0.362900
     25 C25         29.3320    18.5220     9.7960 ca         1 3UY      -0.179000
     26 C26         28.6970    17.3780     9.3310 ca         1 3UY      -0.057000
     27 F27         25.6310    17.7090    11.1850 f          1 3UY      -0.225200
     28 H1          28.5050    14.6110     9.3190 ha         1 3UY       0.115000
     29 H2          24.7860    16.7240     9.1400 ha         1 3UY       0.128000
     30 H3          27.3710    12.5810     8.5010 ha         1 3UY       0.130000
     31 H4          23.2390    13.5820     6.4450 h1         1 3UY       0.039700
     32 H5          22.1540    15.7140     6.5500 h1         1 3UY       0.071200
     33 H6          23.6760    16.5400     6.9800 h1         1 3UY       0.071200
     34 H7          20.5870    17.4550    10.0930 hn         1 3UY       0.486000
     35 H8          20.9030    16.1500    11.1420 hn         1 3UY       0.486000
     36 H9          21.3870    12.5750     5.4740 h1         1 3UY       0.048200
     37 H10         19.9430    12.3220     6.4790 h1         1 3UY       0.048200
     38 H11         21.1000    10.6460     7.8290 hc         1 3UY       0.055700
     39 H12         21.3390    10.2210     6.1390 hc         1 3UY       0.055700
     40 H13         23.4960    10.1000     7.4890 hc         1 3UY       0.057200
     41 H14         23.5810    11.2160     6.1240 hc         1 3UY       0.057200
     42 H15         23.5230    12.6540    10.1390 hc         1 3UY       0.055700
     43 H16         22.0610    11.8310     9.6140 hc         1 3UY       0.055700
     44 H17         23.5770    10.9220     9.7460 hc         1 3UY       0.055700
     45 H18         29.1110    20.2360    11.0880 h4         1 3UY       0.027100
     46 H19         30.3250    18.7840     9.4570 ha         1 3UY       0.129000
     47 H20         29.1920    16.7380     8.6120 ha         1 3UY       0.124000
@<TRIPOS>BOND
     1     1     2 ar  
     2     1     6 ar  
     3     1    28 1   
     4     2     3 ar  
     5     2     7 1   
     6     3     4 ar  
     7     3    29 1   
     8     4     5 ar  
     9     4    11 1   
    10     5     6 ar  
    11     5     8 1   
    12     6    30 1   
    13     7    22 ar  
    14     7    26 ar  
    15     8     9 1   
    16     9    10 1   
    17     9    20 1   
    18     9    21 1   
    19    10    11 1   
    20    10    17 1   
    21    10    31 1   
    22    11    12 1   
    23    11    15 1   
    24    12    13 1   
    25    12    32 1   
    26    12    33 1   
    27    13    14 1   
    28    14    15 2   
    29    14    16 1   
    30    16    34 1   
    31    16    35 1   
    32    17    18 1   
    33    18    19 1   
    34    18    36 1   
    35    18    37 1   
    36    19    20 1   
    37    19    38 1   
    38    19    39 1   
    39    20    40 1   
    40    20    41 1   
    41    21    42 1   
    42    21    43 1   
    43    21    44 1   
    44    22    23 ar  
    45    22    27 1   
    46    23    24 ar  
    47    24    25 ar  
    48    24    45 1   
    49    25    26 ar  
    50    25    46 1   
    51    26    47 1   
@<TRIPOS>SUBSTRUCTURE
     1 3UY         1 TEMP              0 ****  ****    0 ROOT
