@<TRIPOS>MOLECULE
3UY
   47    51     1     0     0
SMALL
No Charge or Current Charge


@<TRIPOS>ATOM
      1 C1          27.4900    14.6720     9.0760 ca         1 3UY      -0.060000
      2 C2          26.7640    15.8610     9.3070 cp         1 3UY      -0.075000
      3 C3          25.3730    15.8580     9.0340 ca         1 3UY      -0.037000
      4 C4          24.7030    14.7070     8.5490 ca         1 3UY      -0.150300
      5 C5          25.4630    13.5210     8.3730 ca         1 3UY       0.166100
      6 C6          26.8430    13.5160     8.6190 ca         1 3UY      -0.148000
      7 C7          27.4590    17.0910     9.8050 cp         1 3UY      -0.093000
      8 O8          24.8930    12.3370     7.9450 os         1 3UY      -0.356100
      9 C9          23.4630    12.1630     7.9930 c6         1 3UY       0.166000
     10 C10         22.7780    13.4510     7.4380 c6         1 3UY       0.159300
     11 C11         23.1880    14.7310     8.2420 c5         1 3UY       0.188500
     12 C12         22.8760    16.0270     7.4220 c5         1 3UY       0.133600
     13 O13         22.3540    16.9400     8.4010 os         1 3UY      -0.472600
     14 C14         22.0010    16.1430     9.4280 c2         1 3UY       0.784500
     15 N15         22.3710    14.9330     9.4770 n2         1 3UY      -0.695900
     16 N16         21.2640    16.7860    10.3380 nv         1 3UY      -1.008200
     17 O17         21.3370    13.2750     7.3420 os         1 3UY      -0.440000
     18 C18         20.9370    12.2260     6.4340 c6         1 3UY       0.150600
     19 C19         21.5310    10.8690     6.8860 c6         1 3UY      -0.107400
     20 C20         23.0700    10.9730     7.0680 c6         1 3UY      -0.074400
     21 C21         23.1050    11.8380     9.4790 c3         1 3UY      -0.098100
     22 C22         26.9190    17.9280    10.8230 ca         1 3UY       0.569200
     23 N23         27.5160    19.0430    11.3010 nb         1 3UY      -0.699000
     24 C24         28.7090    19.3830    10.7700 ca         1 3UY       0.362900
     25 C25         29.3390    18.6310     9.7650 ca         1 3UY      -0.179000
     26 C26         28.7150    17.4730     9.2760 ca         1 3UY      -0.057000
     27 F27         25.7450    17.6350    11.4270 f          1 3UY      -0.225200
     28 H1          28.5600    14.6390     9.2740 ha         1 3UY       0.115000
     29 H2          24.8160    16.7760     9.1950 ha         1 3UY       0.128000
     30 H3          27.4120    12.6030     8.4650 ha         1 3UY       0.130000
     31 H4          23.1550    13.5910     6.4130 h1         1 3UY       0.039700
     32 H5          22.0940    15.8440     6.6720 h1         1 3UY       0.071200
     33 H6          23.7490    16.4570     6.9120 h1         1 3UY       0.071200
     34 H7          20.7800    17.5740     9.9310 hn         1 3UY       0.486000
     35 H8          20.6760    16.1520    10.8620 hn         1 3UY       0.486000
     36 H9          21.2850    12.4740     5.4200 h1         1 3UY       0.048200
     37 H10         19.8390    12.1690     6.4130 h1         1 3UY       0.048200
     38 H11         21.0550    10.5530     7.8240 hc         1 3UY       0.055700
     39 H12         21.2930    10.0950     6.1430 hc         1 3UY       0.055700
     40 H13         23.4660    10.0300     7.4670 hc         1 3UY       0.057200
     41 H14         23.5400    11.1090     6.0840 hc         1 3UY       0.057200
     42 H15         23.5400    12.5610    10.1780 hc         1 3UY       0.055700
     43 H16         22.0220    11.8380     9.6420 hc         1 3UY       0.055700
     44 H17         23.4820    10.8500     9.7690 hc         1 3UY       0.055700
     45 H18         29.1770    20.2850    11.1630 h4         1 3UY       0.027100
     46 H19         30.3010    18.9500     9.3730 ha         1 3UY       0.129000
     47 H20         29.1890    16.8870     8.4910 ha         1 3UY       0.124000
@<TRIPOS>BOND
     1     1     2 ar  
     2     1     6 ar  
     3     1    28 1   
     4     2     3 ar  
     5     2     7 1   
     6     3     4 ar  
     7     3    29 1   
     8     4     5 ar  
     9     4    11 1   
    10     5     6 ar  
    11     5     8 1   
    12     6    30 1   
    13     7    22 ar  
    14     7    26 ar  
    15     8     9 1   
    16     9    10 1   
    17     9    20 1   
    18     9    21 1   
    19    10    11 1   
    20    10    17 1   
    21    10    31 1   
    22    11    12 1   
    23    11    15 1   
    24    12    13 1   
    25    12    32 1   
    26    12    33 1   
    27    13    14 1   
    28    14    15 2   
    29    14    16 1   
    30    16    34 1   
    31    16    35 1   
    32    17    18 1   
    33    18    19 1   
    34    18    36 1   
    35    18    37 1   
    36    19    20 1   
    37    19    38 1   
    38    19    39 1   
    39    20    40 1   
    40    20    41 1   
    41    21    42 1   
    42    21    43 1   
    43    21    44 1   
    44    22    23 ar  
    45    22    27 1   
    46    23    24 ar  
    47    24    25 ar  
    48    24    45 1   
    49    25    26 ar  
    50    25    46 1   
    51    26    47 1   
@<TRIPOS>SUBSTRUCTURE
     1 3UY         1 TEMP              0 ****  ****    0 ROOT
