@<TRIPOS>MOLECULE
3UZ
   51    52     1     0     0
SMALL
No Charge or Current Charge


@<TRIPOS>ATOM
      1 CAC         -4.3060    -0.6950     1.5180 ca         1 3UZ      -0.072500
      2 CAB         -4.7830    -2.0180     1.5010 ca         1 3UZ      -0.109000
      3 CAA         -4.9800    -2.6780     0.2780 ca         1 3UZ       0.129000
      4 Cl1         -5.5770    -4.3330     0.2590 cl         1 3UZ      -0.203000
      5 CAF         -4.7030    -2.0200    -0.9300 ca         1 3UZ      -0.109000
      6 CAE         -4.2250    -0.6970    -0.9160 ca         1 3UZ      -0.072500
      7 CAD         -4.0230    -0.0270     0.3090 ca         1 3UZ      -0.089300
      8 CAH         -3.4940     1.4070     0.3250 c3         1 3UZ       0.145600
      9 OAI         -4.4440     2.2360    -0.3910 os         1 3UZ      -0.417000
     10 CAJ         -4.2890     3.6540    -0.2020 c3         1 3UZ       0.243700
     11 CAK         -5.3370     4.3410    -0.9680 c1         1 3UZ      -0.150100
     12 CAL         -6.1900     4.9330    -1.5910 c1         1 3UZ      -0.208000
     13 CAM         -2.0490     1.4640    -0.2680 c          1 3UZ       0.563100
     14 OAN         -1.7660     1.9910    -1.3390 o          1 3UZ      -0.575100
     15 NAO         -1.0800     0.8650     0.5140 ns         1 3UZ      -0.508900
     16 CAP          0.3370     0.7770     0.1530 c3         1 3UZ       0.103000
     17 CAQ          1.0850    -0.2550     1.0150 c3         1 3UZ      -0.043100
     18 CAR          2.5560    -0.3530     0.6340 ca         1 3UZ      -0.081300
     19 CAW          3.4910     0.5410     1.1880 ca         1 3UZ      -0.169000
     20 CAV          4.8580     0.4590     0.8340 ca         1 3UZ       0.119100
     21 OAX          5.8010     1.3260     1.3630 os         1 3UZ      -0.317100
     22 CAY          5.4600     2.3610     2.3020 c3         1 3UZ       0.144900
     23 CAS          2.9870    -1.3310    -0.2790 ca         1 3UZ      -0.100000
     24 CAT          4.3410    -1.4220    -0.6390 ca         1 3UZ      -0.169000
     25 CAU          5.2860    -0.5290    -0.0850 ca         1 3UZ       0.114100
     26 OAZ          6.6300    -0.5890    -0.4160 os         1 3UZ      -0.315100
     27 CBA          7.1540    -1.5570    -1.3390 c3         1 3UZ       0.248700
     28 CBB          8.6030    -1.3470    -1.4650 c1         1 3UZ      -0.153100
     29 CBC          9.7980    -1.1960    -1.5880 c1         1 3UZ      -0.203000
     30 H1          -4.1580    -0.1930     2.4720 ha         1 3UZ       0.127000
     31 H2          -5.0000    -2.5310     2.4350 ha         1 3UZ       0.131000
     32 H3          -4.8570    -2.5330    -1.8760 ha         1 3UZ       0.131000
     33 H4          -4.0140    -0.1920    -1.8560 ha         1 3UZ       0.127000
     34 H5          -3.4240     1.7400     1.3690 h1         1 3UZ       0.039700
     35 H6          -4.3900     3.9200     0.8580 h1         1 3UZ       0.043700
     36 H7          -3.3080     4.0000    -0.5540 h1         1 3UZ       0.043700
     37 H8          -6.9500     5.4450    -2.1490 ha         1 3UZ       0.257000
     38 H9          -1.3860     0.4410     1.3820 hn         1 3UZ       0.310500
     39 H10          0.4210     0.4920    -0.9050 h1         1 3UZ       0.058700
     40 H11          0.7970     1.7670     0.2790 h1         1 3UZ       0.058700
     41 H12          0.9890     0.0230     2.0720 hc         1 3UZ       0.048700
     42 H13          0.5990    -1.2320     0.9070 hc         1 3UZ       0.048700
     43 H14          3.1390     1.2910     1.8900 ha         1 3UZ       0.117000
     44 H15          6.3570     2.9250     2.5870 h1         1 3UZ       0.040367
     45 H16          4.7420     3.0650     1.8620 h1         1 3UZ       0.040367
     46 H17          5.0240     1.9330     3.2130 h1         1 3UZ       0.040367
     47 H18          2.2690    -2.0230    -0.7150 ha         1 3UZ       0.116000
     48 H19          4.6360    -2.1910    -1.3480 ha         1 3UZ       0.120000
     49 H20          6.9720    -2.5780    -0.9790 h1         1 3UZ       0.049200
     50 H21          6.6900    -1.4450    -2.3280 h1         1 3UZ       0.049200
     51 H22         10.8560    -1.0510    -1.6870 ha         1 3UZ       0.257000
@<TRIPOS>BOND
     1     1     2 ar  
     2     1     7 ar  
     3     1    30 1   
     4     2     3 ar  
     5     2    31 1   
     6     3     4 1   
     7     3     5 ar  
     8     5     6 ar  
     9     5    32 1   
    10     6     7 ar  
    11     6    33 1   
    12     7     8 1   
    13     8     9 1   
    14     8    13 1   
    15     8    34 1   
    16     9    10 1   
    17    10    11 1   
    18    10    35 1   
    19    10    36 1   
    20    11    12 3   
    21    12    37 1   
    22    13    14 2   
    23    13    15 1   
    24    15    16 1   
    25    15    38 1   
    26    16    17 1   
    27    16    39 1   
    28    16    40 1   
    29    17    18 1   
    30    17    41 1   
    31    17    42 1   
    32    18    19 ar  
    33    18    23 ar  
    34    19    20 ar  
    35    19    43 1   
    36    20    21 1   
    37    20    25 ar  
    38    21    22 1   
    39    22    44 1   
    40    22    45 1   
    41    22    46 1   
    42    23    24 ar  
    43    23    47 1   
    44    24    25 ar  
    45    24    48 1   
    46    25    26 1   
    47    26    27 1   
    48    27    28 1   
    49    27    49 1   
    50    27    50 1   
    51    28    29 3   
    52    29    51 1   
@<TRIPOS>SUBSTRUCTURE
     1 3UZ         1 TEMP              0 ****  ****    0 ROOT
