@<TRIPOS>MOLECULE
3UZ
   51    52     1     0     0
SMALL
abcg2


@<TRIPOS>ATOM
      1 CAC         -4.0390    -1.2420     1.0320 ca         1 3UZ      -0.072500
      2 CAB         -4.5640    -2.4920     0.7390 ca         1 3UZ      -0.109000
      3 CAA         -5.1490    -2.7010    -0.4990 ca         1 3UZ       0.129000
      4 CL1         -5.8130    -4.2560    -0.8770 cl         1 3UZ      -0.203000
      5 CAF         -5.2160    -1.6850    -1.4400 ca         1 3UZ      -0.109000
      6 CAE         -4.6800    -0.4430    -1.1370 ca         1 3UZ      -0.072500
      7 CAD         -4.0910    -0.2100     0.1030 ca         1 3UZ      -0.089300
      8 CAH         -3.4650     1.1230     0.4190 c3         1 3UZ       0.145600
      9 OAI         -4.2710     2.1350    -0.1120 os         1 3UZ      -0.417000
     10 CAJ         -3.8540     3.4310     0.2560 c3         1 3UZ       0.243700
     11 CAK         -4.8490     4.3880    -0.2100 c1         1 3UZ      -0.150100
     12 CAL         -5.6610     5.1870    -0.5880 c1         1 3UZ      -0.208000
     13 CAM         -2.0650     1.1350    -0.2190 c          1 3UZ       0.563100
     14 OAN         -1.9210     1.3370    -1.4130 o          1 3UZ      -0.575100
     15 NAO         -1.0670     0.8490     0.6220 ns         1 3UZ      -0.508900
     16 CAP          0.3090     0.6940     0.1960 c3         1 3UZ       0.103000
     17 CAQ          1.1190    -0.0020     1.2840 c3         1 3UZ      -0.043100
     18 CAR          2.5510    -0.1890     0.8710 ca         1 3UZ      -0.081300
     19 CAW          3.4530     0.8760     0.9820 ca         1 3UZ      -0.169000
     20 CAV          4.7740     0.7420     0.5910 ca         1 3UZ       0.119100
     21 OAX          5.7050     1.7090     0.6710 os         1 3UZ      -0.317100
     22 CAY          5.3180     2.9650     1.1920 c3         1 3UZ       0.144900
     23 CAS          3.0000    -1.3880     0.3530 ca         1 3UZ      -0.100000
     24 CAT          4.3280    -1.5400    -0.0480 ca         1 3UZ      -0.169000
     25 CAU          5.2190    -0.4890     0.0660 ca         1 3UZ       0.114100
     26 OAZ          6.5240    -0.5290    -0.2860 os         1 3UZ      -0.315100
     27 CBA          7.0250    -1.7480    -0.7950 c3         1 3UZ       0.248700
     28 CBB          8.4400    -1.5650    -1.0840 c1         1 3UZ      -0.153100
     29 CBC          9.6080    -1.4390    -1.3290 c1         1 3UZ      -0.203000
     30 H1          -3.5920    -1.0770     2.0050 ha         1 3UZ       0.127000
     31 H2          -4.5210    -3.2870     1.4700 ha         1 3UZ       0.131000
     32 H3          -5.6760    -1.8570    -2.4040 ha         1 3UZ       0.131000
     33 H4          -4.7280     0.3420    -1.8790 ha         1 3UZ       0.127000
     34 H5          -3.3800     1.2300     1.5100 h1         1 3UZ       0.039700
     35 H6          -3.7500     3.5170     1.3450 h1         1 3UZ       0.043700
     36 H7          -2.8810     3.6880    -0.1790 h1         1 3UZ       0.043700
     37 H8          -6.3850     5.8940    -0.9220 ha         1 3UZ       0.257000
     38 H9          -1.2570     0.8140     1.6110 hn         1 3UZ       0.310500
     39 H10          0.3340     0.1020    -0.7200 h1         1 3UZ       0.058700
     40 H11          0.7530     1.6670    -0.0370 h1         1 3UZ       0.058700
     41 H12          1.0730     0.5890     2.2040 hc         1 3UZ       0.048700
     42 H13          0.6650    -0.9720     1.5040 hc         1 3UZ       0.048700
     43 H14          3.0980     1.8150     1.3870 ha         1 3UZ       0.117000
     44 H15          6.2070     3.5910     1.1810 h1         1 3UZ       0.040367
     45 H16          4.5450     3.4390     0.5820 h1         1 3UZ       0.040367
     46 H17          4.9550     2.8860     2.2200 h1         1 3UZ       0.040367
     47 H18          2.3220    -2.2270     0.2580 ha         1 3UZ       0.116000
     48 H19          4.6430    -2.4960    -0.4440 ha         1 3UZ       0.120000
     49 H20          6.9010    -2.5620    -0.0710 h1         1 3UZ       0.049200
     50 H21          6.5000    -2.0440    -1.7100 h1         1 3UZ       0.049200
     51 H22         10.6460    -1.3230    -1.5440 ha         1 3UZ       0.257000
@<TRIPOS>BOND
     1     1     2 ar  
     2     1     7 ar  
     3     1    30 1   
     4     2     3 ar  
     5     2    31 1   
     6     3     4 1   
     7     3     5 ar  
     8     5     6 ar  
     9     5    32 1   
    10     6     7 ar  
    11     6    33 1   
    12     7     8 1   
    13     8     9 1   
    14     8    13 1   
    15     8    34 1   
    16     9    10 1   
    17    10    11 1   
    18    10    35 1   
    19    10    36 1   
    20    11    12 3   
    21    12    37 1   
    22    13    14 2   
    23    13    15 1   
    24    15    16 1   
    25    15    38 1   
    26    16    17 1   
    27    16    39 1   
    28    16    40 1   
    29    17    18 1   
    30    17    41 1   
    31    17    42 1   
    32    18    19 ar  
    33    18    23 ar  
    34    19    20 ar  
    35    19    43 1   
    36    20    21 1   
    37    20    25 ar  
    38    21    22 1   
    39    22    44 1   
    40    22    45 1   
    41    22    46 1   
    42    23    24 ar  
    43    23    47 1   
    44    24    25 ar  
    45    24    48 1   
    46    25    26 1   
    47    26    27 1   
    48    27    28 1   
    49    27    49 1   
    50    27    50 1   
    51    28    29 3   
    52    29    51 1   
@<TRIPOS>SUBSTRUCTURE
     1 3UZ         1 TEMP              0 ****  ****    0 ROOT
