@<TRIPOS>MOLECULE
3V0
   42    44     1     0     0
SMALL
No Charge or Current Charge


@<TRIPOS>ATOM
      1 C1          -0.1340     5.4710     0.5570 ca         1 3V0       0.369900
      2 F1           0.4390    -1.5150    -2.4990 f          1 3V0      -0.167000
      3 I1           5.7900    -1.3770    -1.3270 i          1 3V0      -0.292000
      4 N1           0.8530     4.8050    -0.1070 nb         1 3V0      -0.688000
      5 O1          -2.5410     2.6990     1.0580 os         1 3V0      -0.161200
      6 C2          -1.3200     4.8550     1.0010 ca         1 3V0      -0.173000
      7 N2          -4.2920     0.5410     1.2480 ns         1 3V0      -0.367400
      8 O2          -2.8240    -0.8320     0.1390 o          1 3V0      -0.595100
      9 C3           0.6870     3.4760    -0.3390 ca         1 3V0       0.417900
     10 O3          -5.2220    -0.5340     1.4740 os         1 3V0      -0.207100
     11 C4          -0.4610     2.8140     0.1070 ca         1 3V0      -0.220800
     12 O4          -6.5770    -3.0090     0.7340 oh         1 3V0      -0.623000
     13 C5          -1.4560     3.4890     0.7490 ca         1 3V0       0.130100
     14 O5          -9.2940    -2.8470     0.0850 oh         1 3V0      -0.641000
     15 C6          -2.1940     1.4410     0.5500 cc         1 3V0      -0.174100
     16 C7          -0.9280     1.4700    -0.0030 cd         1 3V0       0.229800
     17 C8          -3.0950     0.2680     0.6120 c          1 3V0       0.659300
     18 C9           1.0320     0.0110    -0.7380 ca         1 3V0       0.264000
     19 C10          2.0410     0.5460     0.0870 ca         1 3V0      -0.132000
     20 C11          3.3830     0.1580    -0.0840 ca         1 3V0      -0.071000
     21 C12          3.7250    -0.7800    -1.0710 ca         1 3V0       0.196000
     22 C13          2.7290    -1.3420    -1.8820 ca         1 3V0      -0.100000
     23 C14          1.3890    -0.9550    -1.7120 ca         1 3V0       0.145000
     24 C15         -6.2190    -0.5920     0.4380 c3         1 3V0       0.094600
     25 C16         -7.2240    -1.7230     0.7710 c3         1 3V0       0.168300
     26 C17         -8.4210    -1.7450    -0.2170 c3         1 3V0       0.130600
     27 H1           0.0300     6.5350     0.7250 h4         1 3V0       0.026100
     28 H2          -2.0930     5.4210     1.5110 ha         1 3V0       0.144000
     29 HN2         -4.4890     1.4350     1.6870 hn         1 3V0       0.350500
     30 H3           1.4730     2.9660    -0.8940 h4         1 3V0       0.034100
     31 HN3         -0.9780    -0.3680    -0.7800 hn         1 3V0       0.537000
     32 HO4         -7.3110    -3.6530     0.6080 ho         1 3V0       0.441000
     33 HO5        -10.0590    -2.7870    -0.5300 ho         1 3V0       0.444000
     34 H10          1.7870     1.2470     0.8760 ha         1 3V0       0.132000
     35 H11          4.1580     0.5760     0.5540 ha         1 3V0       0.136000
     36 H13          2.9920    -2.0760    -2.6380 ha         1 3V0       0.148000
     37 H15         -6.7600     0.3620     0.3780 h1         1 3V0       0.043200
     38 H15A        -5.7560    -0.7840    -0.5390 h1         1 3V0       0.043200
     39 H16         -7.6280    -1.5300     1.7750 h1         1 3V0       0.094700
     40 H17         -8.0440    -1.8290    -1.2450 h1         1 3V0       0.019700
     41 H17A        -8.9670    -0.7960    -0.1380 h1         1 3V0       0.019700
     42 N3          -0.3110     0.3810    -0.5580 nu         1 3V0      -0.806000
@<TRIPOS>BOND
     1     1     4 ar  
     2     1     6 ar  
     3     1    27 1   
     4     2    23 1   
     5     3    21 1   
     6     4     9 ar  
     7     5    13 1   
     8     5    15 1   
     9     6    13 ar  
    10     6    28 1   
    11     7    10 1   
    12     7    17 1   
    13     7    29 1   
    14     8    17 2   
    15     9    11 ar  
    16     9    30 1   
    17    10    24 1   
    18    11    13 ar  
    19    11    16 1   
    20    12    25 1   
    21    12    32 1   
    22    14    26 1   
    23    14    33 1   
    24    15    16 2   
    25    15    17 1   
    26    16    42 1   
    27    18    19 ar  
    28    18    23 ar  
    29    18    42 1   
    30    19    20 ar  
    31    19    34 1   
    32    20    21 ar  
    33    20    35 1   
    34    21    22 ar  
    35    22    23 ar  
    36    22    36 1   
    37    24    25 1   
    38    24    37 1   
    39    24    38 1   
    40    25    26 1   
    41    25    39 1   
    42    26    40 1   
    43    26    41 1   
    44    31    42 1   
@<TRIPOS>SUBSTRUCTURE
     1 3V0         1 TEMP              0 ****  ****    0 ROOT
