@<TRIPOS>MOLECULE
3V0
   42    44     1     0     0
SMALL
bcc


@<TRIPOS>ATOM
      1 C1          -0.1260     5.2480     0.5040 ca         1 3V0       0.435200
      2 F1           0.6630    -1.1670    -2.8240 f          1 3V0      -0.131900
      3 I1           5.7410    -1.0190    -1.0970 i          1 3V0      -0.154900
      4 N1           0.8450     4.5860    -0.1400 nb         1 3V0      -0.688000
      5 O1          -2.5290     2.5790     0.8820 os         1 3V0      -0.161200
      6 C2          -1.3190     4.6880     0.9180 ca         1 3V0      -0.256300
      7 N2          -4.3740     0.5830     1.1370 ns         1 3V0      -0.434400
      8 O2          -2.9790    -0.8630     0.0800 o          1 3V0      -0.595100
      9 C3           0.6900     3.3010    -0.3960 ca         1 3V0       0.483200
     10 O3          -5.2500    -0.4080     1.4450 os         1 3V0      -0.183900
     11 C4          -0.4630     2.6140    -0.0110 ca         1 3V0      -0.286100
     12 O4          -6.5530    -2.8470     1.0590 oh         1 3V0      -0.560800
     13 C5          -1.4640     3.3420     0.6320 ca         1 3V0       0.130100
     14 O5          -9.3060    -2.6550     0.4100 oh         1 3V0      -0.578800
     15 C6          -2.2320     1.3190     0.4180 cc         1 3V0      -0.174100
     16 C7          -0.9840     1.2740    -0.1390 cd         1 3V0       0.229800
     17 C8          -3.2120     0.2490     0.5370 c          1 3V0       0.726300
     18 C9           0.9580    -0.0490    -0.7850 ca         1 3V0       0.125600
     19 C10          1.8350     0.3490     0.2200 ca         1 3V0      -0.150000
     20 C11          3.1950     0.0910     0.1320 ca         1 3V0      -0.089000
     21 C12          3.6870    -0.6080    -0.9590 ca         1 3V0       0.058900
     22 C13          2.8370    -1.0490    -1.9640 ca         1 3V0      -0.118000
     23 C14          1.4950    -0.7560    -1.8590 ca         1 3V0       0.109900
     24 C15         -6.2860    -0.5040     0.4700 c3         1 3V0       0.071400
     25 C16         -7.2210    -1.6190     0.9060 c3         1 3V0       0.145100
     26 C17         -8.3880    -1.7030    -0.0660 c3         1 3V0       0.107400
     27 H1           0.0610     6.2980     0.6940 h4         1 3V0       0.026100
     28 H2          -2.0790     5.2690     1.4220 ha         1 3V0       0.162000
     29 HN2         -4.4990     1.4330     1.6700 hn         1 3V0       0.350500
     30 H3           1.4950     2.8070    -0.9260 h4         1 3V0       0.034100
     31 HN3         -1.0300    -0.5800    -0.9100 hn         1 3V0       0.481800
     32 HO4         -6.2140    -3.1260     0.2010 ho         1 3V0       0.402000
     33 HO5        -10.0060    -2.7470    -0.2420 ho         1 3V0       0.405000
     34 H10          1.4540     0.8610     1.0940 ha         1 3V0       0.150000
     35 H11          3.8460     0.4230     0.9280 ha         1 3V0       0.154000
     36 H13          3.1950    -1.5970    -2.8250 ha         1 3V0       0.166000
     37 H15         -6.8350     0.4410     0.4060 h1         1 3V0       0.043200
     38 H15A        -5.8610    -0.7180    -0.5170 h1         1 3V0       0.043200
     39 H16         -7.6170    -1.3710     1.8970 h1         1 3V0       0.094700
     40 H17         -8.0060    -1.9700    -1.0620 h1         1 3V0       0.019700
     41 H17A        -8.8430    -0.7090    -0.1590 h1         1 3V0       0.019700
     42 N3          -0.4110     0.2040    -0.7580 nu         1 3V0      -0.612400
@<TRIPOS>BOND
     1     1     4 ar  
     2     1     6 ar  
     3     1    27 1   
     4     2    23 1   
     5     3    21 1   
     6     4     9 ar  
     7     5    13 1   
     8     5    15 1   
     9     6    13 ar  
    10     6    28 1   
    11     7    10 1   
    12     7    17 1   
    13     7    29 1   
    14     8    17 2   
    15     9    11 ar  
    16     9    30 1   
    17    10    24 1   
    18    11    13 ar  
    19    11    16 1   
    20    12    25 1   
    21    12    32 1   
    22    14    26 1   
    23    14    33 1   
    24    15    16 2   
    25    15    17 1   
    26    16    42 1   
    27    18    19 ar  
    28    18    23 ar  
    29    18    42 1   
    30    19    20 ar  
    31    19    34 1   
    32    20    21 ar  
    33    20    35 1   
    34    21    22 ar  
    35    22    23 ar  
    36    22    36 1   
    37    24    25 1   
    38    24    37 1   
    39    24    38 1   
    40    25    26 1   
    41    25    39 1   
    42    26    40 1   
    43    26    41 1   
    44    31    42 1   
@<TRIPOS>SUBSTRUCTURE
     1 3V0         1 TEMP              0 ****  ****    0 ROOT
