@<TRIPOS>MOLECULE
3V1
   53    56     1     0     0
SMALL
No Charge or Current Charge


@<TRIPOS>ATOM
      1 C1           0.9880     1.6270     0.1500 ca         1 3V1       0.162100
      2 C2           0.6340     2.2970    -1.0350 ca         1 3V1      -0.205000
      3 C3           1.5940     2.5000    -2.0370 ca         1 3V1      -0.050000
      4 C4           2.9080     2.0390    -1.8490 ca         1 3V1      -0.200000
      5 C5           3.2800     1.3780    -0.6630 ca         1 3V1       0.007000
      6 C6           2.3050     1.1800     0.3400 ca         1 3V1      -0.163000
      7 N7           4.6310     0.9500    -0.5500 ns         1 3V1      -0.144000
      8 C8           5.3210     0.2760     0.4480 c          1 3V1       0.656700
      9 O9           4.8120    -0.0940     1.4970 o          1 3V1      -0.557100
     10 C10          6.7420     0.0510     0.1050 cc         1 3V1      -0.334600
     11 S11          7.4700     0.5790    -1.3940 ss         1 3V1       0.025600
     12 C12          8.9600    -0.1100    -0.8200 cc         1 3V1       0.514400
     13 N13          8.9360    -0.6830     0.3740 nd         1 3V1      -0.640000
     14 C14          7.6600    -0.5930     0.9130 cd         1 3V1       0.383300
     15 C15          7.4330    -1.1920     2.2740 c3         1 3V1      -0.130400
     16 Cl16        10.3940    -0.0310    -1.7950 cl         1 3V1      -0.098000
     17 O17          0.0670     1.4290     1.1540 os         1 3V1      -0.247200
     18 C18         -1.2460     1.0910     0.9110 ca         1 3V1       0.067100
     19 C19         -2.2480     1.6150     1.7420 ca         1 3V1      -0.091500
     20 C20         -3.5950     1.2760     1.5220 ca         1 3V1      -0.140000
     21 C21         -3.9550     0.4000     0.4800 ca         1 3V1      -0.015000
     22 C22         -2.9410    -0.1290    -0.3500 ca         1 3V1      -0.140000
     23 C23         -1.5930     0.2110    -0.1310 ca         1 3V1      -0.091500
     24 N24         -5.3380     0.1080     0.3150 ns         1 3V1      -0.149000
     25 C25         -6.0160    -0.8170    -0.4760 c          1 3V1       0.649300
     26 O26         -5.4390    -1.6530    -1.1640 o          1 3V1      -0.567100
     27 C27         -7.5100    -0.7760    -0.3450 ce         1 3V1      -0.203900
     28 C28         -8.0900     0.5170    -0.1480 cg         1 3V1       0.297700
     29 N29         -8.5190     1.5860     0.0300 n1         1 3V1      -0.475000
     30 C30         -8.2740    -1.8980    -0.2940 c2         1 3V1       0.267900
     31 O31         -7.7490    -3.1300    -0.3560 oh         1 3V1      -0.474100
     32 C32         -9.7620    -1.8600    -0.1110 cx         1 3V1      -0.180500
     33 C33        -10.6610    -1.2420    -1.1650 cx         1 3V1      -0.109400
     34 C34        -10.6730    -2.7360    -0.9510 cx         1 3V1      -0.109400
     35 H1          -0.3800     2.6640    -1.1770 ha         1 3V1       0.130000
     36 H2           1.3230     3.0150    -2.9560 ha         1 3V1       0.113000
     37 H3           3.6440     2.2030    -2.6330 ha         1 3V1       0.111000
     38 H4           2.5410     0.6800     1.2730 ha         1 3V1       0.161000
     39 H5           5.1970     1.1820    -1.3540 hn         1 3V1       0.153000
     40 H6           7.0990    -0.4290     2.9860 hc         1 3V1       0.065033
     41 H7           6.6720    -1.9790     2.2330 hc         1 3V1       0.065033
     42 H8           8.3500    -1.6390     2.6750 hc         1 3V1       0.065033
     43 H9          -1.9810     2.2880     2.5530 ha         1 3V1       0.129500
     44 H10         -4.3610     1.6950     2.1710 ha         1 3V1       0.131500
     45 H11         -3.1730    -0.7980    -1.1730 ha         1 3V1       0.131500
     46 H12         -0.8220    -0.2120    -0.7710 ha         1 3V1       0.129500
     47 H13         -5.9440     0.6920     0.8750 hn         1 3V1       0.158000
     48 H14         -8.4900    -3.7590    -0.2420 ho         1 3V1       0.481000
     49 H15        -10.0580    -1.7200     0.9270 hc         1 3V1       0.118700
     50 H16        -11.5230    -0.6730    -0.8250 hc         1 3V1       0.084950
     51 H17        -10.2020    -0.8670    -2.0770 hc         1 3V1       0.084950
     52 H18        -10.2410    -3.3490    -1.7400 hc         1 3V1       0.084950
     53 H19        -11.5480    -3.1690    -0.4710 hc         1 3V1       0.084950
@<TRIPOS>BOND
     1     1     2 ar  
     2     1     6 ar  
     3     1    17 1   
     4     2     3 ar  
     5     2    35 1   
     6     3     4 ar  
     7     3    36 1   
     8     4     5 ar  
     9     4    37 1   
    10     5     6 ar  
    11     5     7 1   
    12     6    38 1   
    13     7     8 1   
    14     7    39 1   
    15     8     9 2   
    16     8    10 1   
    17    10    11 1   
    18    10    14 2   
    19    11    12 1   
    20    12    13 2   
    21    12    16 1   
    22    13    14 1   
    23    14    15 1   
    24    15    40 1   
    25    15    41 1   
    26    15    42 1   
    27    17    18 1   
    28    18    19 ar  
    29    18    23 ar  
    30    19    20 ar  
    31    19    43 1   
    32    20    21 ar  
    33    20    44 1   
    34    21    22 ar  
    35    21    24 1   
    36    22    23 ar  
    37    22    45 1   
    38    23    46 1   
    39    24    25 1   
    40    24    47 1   
    41    25    26 2   
    42    25    27 1   
    43    27    28 1   
    44    27    30 2   
    45    28    29 3   
    46    30    31 1   
    47    30    32 1   
    48    31    48 1   
    49    32    33 1   
    50    32    34 1   
    51    32    49 1   
    52    33    34 1   
    53    33    50 1   
    54    33    51 1   
    55    34    52 1   
    56    34    53 1   
@<TRIPOS>SUBSTRUCTURE
     1 3V1         1 TEMP              0 ****  ****    0 ROOT
