@<TRIPOS>MOLECULE
3V1
   53    56     1     0     0
SMALL
abcg2


@<TRIPOS>ATOM
      1 C1           1.0170     1.0410     0.1080 ca         1 3V1       0.162100
      2 C2           0.5610     1.7010    -1.0240 ca         1 3V1      -0.205000
      3 C3           1.5010     2.1820    -1.9270 ca         1 3V1      -0.050000
      4 C4           2.8560     2.0110    -1.7170 ca         1 3V1      -0.200000
      5 C5           3.3020     1.3410    -0.5740 ca         1 3V1       0.007000
      6 C6           2.3770     0.8540     0.3440 ca         1 3V1      -0.163000
      7 N7           4.6870     1.2210    -0.4220 ns         1 3V1      -0.144000
      8 C8           5.3770     0.4500     0.4600 c          1 3V1       0.656700
      9 O9           4.8640    -0.3170     1.2530 o          1 3V1      -0.557100
     10 C10          6.8450     0.5990     0.3990 cc         1 3V1      -0.334600
     11 S11          7.6330     2.0570    -0.0960 ss         1 3V1       0.025600
     12 C12          9.1320     1.2920     0.2080 cc         1 3V1       0.514400
     13 N13          9.0730     0.0830     0.6390 nd         1 3V1      -0.640000
     14 C14          7.7790    -0.3360     0.7630 cd         1 3V1       0.383300
     15 C15          7.5180    -1.7200     1.2530 c3         1 3V1      -0.130400
     16 CL16        10.5910     2.1270    -0.0430 cl         1 3V1      -0.098000
     17 O17          0.1930     0.5490     1.0740 os         1 3V1      -0.247200
     18 C18         -1.1540     0.4550     0.8230 ca         1 3V1       0.067100
     19 C19         -2.0220     1.3590     1.4140 ca         1 3V1      -0.091500
     20 C20         -3.3850     1.2280     1.2130 ca         1 3V1      -0.140000
     21 C21         -3.9000     0.2090     0.4100 ca         1 3V1      -0.015000
     22 C22         -3.0140    -0.6880    -0.1900 ca         1 3V1      -0.140000
     23 C23         -1.6500    -0.5620     0.0230 ca         1 3V1      -0.091500
     24 N24         -5.2880     0.1820     0.2350 ns         1 3V1      -0.149000
     25 C25         -6.0600    -0.8700    -0.1600 c          1 3V1       0.649300
     26 O26         -5.6020    -1.9650    -0.4250 o          1 3V1      -0.567100
     27 C27         -7.5100    -0.5640    -0.2480 ce         1 3V1      -0.203900
     28 C28         -7.9170     0.7880    -0.1470 cg         1 3V1       0.297700
     29 N29         -8.1990     1.9060    -0.0590 n1         1 3V1      -0.475000
     30 C30         -8.4810    -1.5190    -0.4420 c2         1 3V1       0.267900
     31 O31         -8.1240    -2.7780    -0.5300 oh         1 3V1      -0.474100
     32 C32         -9.9030    -1.1680    -0.5490 cx         1 3V1      -0.180500
     33 C33        -10.8040    -1.9140    -1.5120 cx         1 3V1      -0.109400
     34 C34        -10.9770    -2.1100    -0.0540 cx         1 3V1      -0.109400
     35 H1          -0.4930     1.8480    -1.2130 ha         1 3V1       0.130000
     36 H2           1.1640     2.7010    -2.8140 ha         1 3V1       0.113000
     37 H3           3.5690     2.3940    -2.4360 ha         1 3V1       0.111000
     38 H4           2.6840     0.3360     1.2380 ha         1 3V1       0.161000
     39 H5           5.2180     1.6750    -1.1500 hn         1 3V1       0.153000
     40 H6           7.2770    -1.7160     2.3170 hc         1 3V1       0.065033
     41 H7           6.6850    -2.1840     0.7310 hc         1 3V1       0.065033
     42 H8           8.4060    -2.3320     1.1120 hc         1 3V1       0.065033
     43 H9          -1.6400     2.1570     2.0370 ha         1 3V1       0.129500
     44 H10         -4.0570     1.9320     1.6880 ha         1 3V1       0.131500
     45 H11         -3.3680    -1.4850    -0.8230 ha         1 3V1       0.131500
     46 H12         -0.9740    -1.2670    -0.4440 ha         1 3V1       0.129500
     47 H13         -5.7580     1.0140     0.5580 hn         1 3V1       0.158000
     48 H14         -8.8760    -3.3720    -0.6530 ho         1 3V1       0.481000
     49 H15        -10.1230    -0.1170    -0.4310 hc         1 3V1       0.118700
     50 H16        -11.5190    -1.3060    -2.0480 hc         1 3V1       0.084950
     51 H17        -10.3790    -2.7170    -2.1020 hc         1 3V1       0.084950
     52 H18        -10.6840    -3.0550     0.3890 hc         1 3V1       0.084950
     53 H19        -11.8150    -1.6410     0.4420 hc         1 3V1       0.084950
@<TRIPOS>BOND
     1     1     2 ar  
     2     1     6 ar  
     3     1    17 1   
     4     2     3 ar  
     5     2    35 1   
     6     3     4 ar  
     7     3    36 1   
     8     4     5 ar  
     9     4    37 1   
    10     5     6 ar  
    11     5     7 1   
    12     6    38 1   
    13     7     8 1   
    14     7    39 1   
    15     8     9 2   
    16     8    10 1   
    17    10    11 1   
    18    10    14 2   
    19    11    12 1   
    20    12    13 2   
    21    12    16 1   
    22    13    14 1   
    23    14    15 1   
    24    15    40 1   
    25    15    41 1   
    26    15    42 1   
    27    17    18 1   
    28    18    19 ar  
    29    18    23 ar  
    30    19    20 ar  
    31    19    43 1   
    32    20    21 ar  
    33    20    44 1   
    34    21    22 ar  
    35    21    24 1   
    36    22    23 ar  
    37    22    45 1   
    38    23    46 1   
    39    24    25 1   
    40    24    47 1   
    41    25    26 2   
    42    25    27 1   
    43    27    28 1   
    44    27    30 2   
    45    28    29 3   
    46    30    31 1   
    47    30    32 1   
    48    31    48 1   
    49    32    33 1   
    50    32    34 1   
    51    32    49 1   
    52    33    34 1   
    53    33    50 1   
    54    33    51 1   
    55    34    52 1   
    56    34    53 1   
@<TRIPOS>SUBSTRUCTURE
     1 3V1         1 TEMP              0 ****  ****    0 ROOT
