@<TRIPOS>MOLECULE
3V2
   16    15     1     0     0
SMALL
No Charge or Current Charge


@<TRIPOS>ATOM
      1 N           -0.6990     2.2530     0.3510 n8         1 3V2      -0.957200
      2 CA          -0.6590     0.7390     0.4580 c3         1 3V2      -0.155500
      3 CB          -1.9450     0.1860    -0.2260 c3         1 3V2      -0.051400
      4 CG          -2.2890    -1.2830     0.1010 c3         1 3V2      -0.083100
      5 P1           0.9430    -0.2460     0.0010 p5         1 3V2       1.302500
      6 O2           0.9880    -1.5280     0.7660 o          1 3V2      -0.932500
      7 O3           0.9640    -0.5220    -1.4670 o          1 3V2      -0.932500
      8 O1           2.1390     0.5760     0.3600 o          1 3V2      -0.932500
      9 H1          -0.4810     2.5290    -0.6140 hn         1 3V2       0.345000
     10 H2          -1.6600     2.5800     0.4960 hn         1 3V2       0.345000
     11 H4          -0.7660     0.5260     1.5290 h1         1 3V2       0.021700
     12 H5          -2.8050     0.7970     0.0810 hc         1 3V2      -0.010800
     13 H6          -1.8620     0.2970    -1.3140 hc         1 3V2      -0.010800
     14 H7          -1.5500    -1.9700    -0.3250 hc         1 3V2       0.016700
     15 H8          -2.3320    -1.4410     1.1860 hc         1 3V2       0.016700
     16 H9          -3.2670    -1.5440    -0.3190 hc         1 3V2       0.016700
@<TRIPOS>BOND
     1     1     2 1   
     2     1     9 1   
     3     1    10 1   
     4     2     3 1   
     5     2     5 1   
     6     2    11 1   
     7     3     4 1   
     8     3    12 1   
     9     3    13 1   
    10     4    14 1   
    11     4    15 1   
    12     4    16 1   
    13     5     6 1   
    14     5     7 1   
    15     5     8 1   
@<TRIPOS>SUBSTRUCTURE
     1 3V2         1 TEMP              0 ****  ****    0 ROOT
