@<TRIPOS>MOLECULE
3V2
   16    15     1     0     0
SMALL
bcc


@<TRIPOS>ATOM
      1 N           -0.5830     2.1200     0.2690 n8         1 3V2      -0.846800
      2 CA          -0.6880     0.6720     0.4750 c3         1 3V2       0.002300
      3 CB          -1.9250     0.0830    -0.2150 c3         1 3V2      -0.051400
      4 CG          -2.3560    -1.2900     0.2810 c3         1 3V2      -0.083100
      5 P1           0.9250    -0.0950    -0.1000 p5         1 3V2       1.144700
      6 O2           0.7700    -1.6170     0.0370 o          1 3V2      -0.932500
      7 O3           1.0390     0.3810    -1.5610 o          1 3V2      -0.932500
      8 O1           2.0090     0.4800     0.8200 o          1 3V2      -0.932500
      9 H1          -0.2720     2.2660    -0.6860 hn         1 3V2       0.289800
     10 H2          -1.5060     2.5380     0.3220 hn         1 3V2       0.289800
     11 H4          -0.7950     0.4960     1.5560 h1         1 3V2       0.021700
     12 H5          -2.7640     0.7790    -0.0790 hc         1 3V2      -0.010800
     13 H6          -1.7390     0.0510    -1.2940 hc         1 3V2      -0.010800
     14 H7          -1.5540    -2.0110     0.1380 hc         1 3V2       0.016700
     15 H8          -2.5970    -1.2620     1.3460 hc         1 3V2       0.016700
     16 H9          -3.2450    -1.6420    -0.2450 hc         1 3V2       0.016700
@<TRIPOS>BOND
     1     1     2 1   
     2     1     9 1   
     3     1    10 1   
     4     2     3 1   
     5     2     5 1   
     6     2    11 1   
     7     3     4 1   
     8     3    12 1   
     9     3    13 1   
    10     4    14 1   
    11     4    15 1   
    12     4    16 1   
    13     5     6 1   
    14     5     7 1   
    15     5     8 1   
@<TRIPOS>SUBSTRUCTURE
     1 3V2         1 TEMP              0 ****  ****    0 ROOT
