@<TRIPOS>MOLECULE
3V3
   40    39     1     0     0
SMALL
No Charge or Current Charge


@<TRIPOS>ATOM
      1 C1           6.7510     0.8610     1.3920 c3         1 3V3       0.148800
      2 C2           5.6550     1.6600     0.6290 c3         1 3V3       0.166600
      3 C4           3.8220     1.3840    -0.9320 c3         1 3V3       0.158600
      4 O3           4.8710     0.7530    -0.1710 os         1 3V3      -0.428000
      5 C5           3.0500     0.3020    -1.7260 c3         1 3V3       0.164600
      6 C7           1.4840    -1.5250    -1.4330 c3         1 3V3       0.161600
      7 C8           0.6650    -2.2640    -0.3470 c3         1 3V3       0.164600
      8 C10         -1.2420    -1.9840     1.1210 c3         1 3V3       0.160600
      9 O6           2.2490    -0.4730    -0.8120 os         1 3V3      -0.434000
     10 C11         -2.3560    -0.9750     1.4960 c3         1 3V3       0.169600
     11 C13         -4.4000     0.0080     0.6540 c3         1 3V3       0.171600
     12 C14         -5.3210    -0.0430    -0.5740 c3         1 3V3      -0.211400
     13 C15         -6.4860     0.9220    -0.3440 c          1 3V3       0.720000
     14 N1           7.7880     0.2490     0.5160 n8         1 3V3      -0.979200
     15 O9          -0.4080    -1.4100     0.0960 os         1 3V3      -0.428000
     16 O12         -3.3160    -0.9050     0.4210 os         1 3V3      -0.470000
     17 O16         -6.3500     2.0840    -0.6940 o          1 3V3      -0.741500
     18 H1           7.2550     1.5430     2.0910 h1         1 3V3       0.034200
     19 H2           6.2750     0.0670     1.9840 h1         1 3V3       0.034200
     20 H3           5.0140     2.1700     1.3600 h1         1 3V3       0.015200
     21 H4           6.1280     2.4260    -0.0010 h1         1 3V3       0.015200
     22 H5           3.1260     1.9220    -0.2740 h1         1 3V3       0.026700
     23 H6           4.2490     2.1050    -1.6400 h1         1 3V3       0.026700
     24 H7           2.4080     0.7980    -2.4660 h1         1 3V3       0.026200
     25 H8           3.7620    -0.3360    -2.2660 h1         1 3V3       0.026200
     26 H9           2.1560    -2.2440    -1.9200 h1         1 3V3       0.026200
     27 H10          0.8050    -1.1220    -2.1950 h1         1 3V3       0.026200
     28 H11          0.2590    -3.1880    -0.7780 h1         1 3V3       0.022200
     29 H12          1.3230    -2.5360     0.4880 h1         1 3V3       0.022200
     30 H13         -0.6450    -2.2000     2.0160 h1         1 3V3       0.015700
     31 H14         -1.6960    -2.9240     0.7780 h1         1 3V3       0.015700
     32 H15         -2.8450    -1.3150     2.4180 h1         1 3V3       0.019200
     33 H16         -1.9090     0.0090     1.6900 h1         1 3V3       0.019200
     34 H17         -4.0230     1.0300     0.7930 h1         1 3V3       0.022700
     35 H18         -4.9630    -0.2800     1.5520 h1         1 3V3       0.022700
     36 H19         -4.7110     0.2800    -1.4260 hc         1 3V3       0.029700
     37 H20         -5.6800    -1.0770    -0.6430 hc         1 3V3       0.029700
     38 O1          -7.4820     0.4980     0.2210 o          1 3V3      -0.741500
     39 H22          8.2800     0.9930     0.0080 hn         1 3V3       0.385500
     40 H23          8.5200    -0.1690     1.1040 hn         1 3V3       0.385500
@<TRIPOS>BOND
     1     1     2 1   
     2     1    14 1   
     3     1    18 1   
     4     1    19 1   
     5     2     4 1   
     6     2    20 1   
     7     2    21 1   
     8     3     4 1   
     9     3     5 1   
    10     3    22 1   
    11     3    23 1   
    12     5     9 1   
    13     5    24 1   
    14     5    25 1   
    15     6     7 1   
    16     6     9 1   
    17     6    26 1   
    18     6    27 1   
    19     7    15 1   
    20     7    28 1   
    21     7    29 1   
    22     8    10 1   
    23     8    15 1   
    24     8    30 1   
    25     8    31 1   
    26    10    16 1   
    27    10    32 1   
    28    10    33 1   
    29    11    12 1   
    30    11    16 1   
    31    11    34 1   
    32    11    35 1   
    33    12    13 1   
    34    12    36 1   
    35    12    37 1   
    36    13    17 1   
    37    13    38 1   
    38    14    39 1   
    39    14    40 1   
@<TRIPOS>SUBSTRUCTURE
     1 3V3         1 TEMP              0 ****  ****    0 ROOT
