@<TRIPOS>MOLECULE
3V3
   40    39     1     0     0
SMALL
abcg2


@<TRIPOS>ATOM
      1 C1           6.4720     1.0090     1.4210 c3         1 3V3       0.148800
      2 C2           5.4780     1.6730     0.4940 c3         1 3V3       0.166600
      3 C4           3.7880     1.2630    -1.0690 c3         1 3V3       0.158600
      4 O3           4.7300     0.7010    -0.1930 os         1 3V3      -0.428000
      5 C5           3.0230     0.1690    -1.7680 c3         1 3V3       0.164600
      6 C7           1.5150    -1.5860    -1.4150 c3         1 3V3       0.161600
      7 C8           0.6750    -2.2640    -0.3630 c3         1 3V3       0.164600
      8 C10         -1.1080    -1.9260     1.1150 c3         1 3V3       0.160600
      9 O6           2.2470    -0.5380    -0.8340 os         1 3V3      -0.434000
     10 C11         -2.2030    -0.9590     1.4900 c3         1 3V3       0.169600
     11 C13         -4.1880     0.0300     0.7310 c3         1 3V3       0.171600
     12 C14         -5.1250     0.0840    -0.4550 c3         1 3V3      -0.211400
     13 C15         -6.3670     0.9690    -0.2450 c          1 3V3       0.720000
     14 N1           7.4500     0.2210     0.6900 n8         1 3V3      -0.979200
     15 O9          -0.3190    -1.3810     0.0890 os         1 3V3      -0.428000
     16 O12         -3.1010    -0.8190     0.4220 os         1 3V3      -0.470000
     17 O16         -6.4710     1.5680     0.8440 o          1 3V3      -0.741500
     18 H1           6.9120     1.8040     2.0400 h1         1 3V3       0.034200
     19 H2           5.9350     0.3500     2.1090 h1         1 3V3       0.034200
     20 H3           4.8190     2.3240     1.0860 h1         1 3V3       0.015200
     21 H4           6.0090     2.3270    -0.2150 h1         1 3V3       0.015200
     22 H5           3.0900     1.9220    -0.5320 h1         1 3V3       0.026700
     23 H6           4.2780     1.8800    -1.8350 h1         1 3V3       0.026700
     24 H7           2.3900     0.6310    -2.5380 h1         1 3V3       0.026200
     25 H8           3.7210    -0.5010    -2.2910 h1         1 3V3       0.026200
     26 H9           2.1830    -2.3370    -1.8600 h1         1 3V3       0.026200
     27 H10          0.8700    -1.2170    -2.2260 h1         1 3V3       0.026200
     28 H11          0.2310    -3.1650    -0.8080 h1         1 3V3       0.022200
     29 H12          1.3140    -2.6010     0.4670 h1         1 3V3       0.022200
     30 H13         -0.5050    -2.1280     2.0110 h1         1 3V3       0.015700
     31 H14         -1.5500    -2.8850     0.8070 h1         1 3V3       0.015700
     32 H15         -2.7070    -1.3520     2.3840 h1         1 3V3       0.019200
     33 H16         -1.7670     0.0100     1.7730 h1         1 3V3       0.019200
     34 H17         -3.8260     1.0370     0.9810 h1         1 3V3       0.022700
     35 H18         -4.7170    -0.3420     1.6190 h1         1 3V3       0.022700
     36 H19         -4.5860     0.4480    -1.3370 hc         1 3V3       0.029700
     37 H20         -5.4580    -0.9280    -0.7090 hc         1 3V3       0.029700
     38 O1          -7.1760     1.0100    -1.1940 o          1 3V3      -0.741500
     39 H22          8.0480     0.8400     0.1560 hn         1 3V3       0.385500
     40 H23          8.0620    -0.2470     1.3460 hn         1 3V3       0.385500
@<TRIPOS>BOND
     1     1     2 1   
     2     1    14 1   
     3     1    18 1   
     4     1    19 1   
     5     2     4 1   
     6     2    20 1   
     7     2    21 1   
     8     3     4 1   
     9     3     5 1   
    10     3    22 1   
    11     3    23 1   
    12     5     9 1   
    13     5    24 1   
    14     5    25 1   
    15     6     7 1   
    16     6     9 1   
    17     6    26 1   
    18     6    27 1   
    19     7    15 1   
    20     7    28 1   
    21     7    29 1   
    22     8    10 1   
    23     8    15 1   
    24     8    30 1   
    25     8    31 1   
    26    10    16 1   
    27    10    32 1   
    28    10    33 1   
    29    11    12 1   
    30    11    16 1   
    31    11    34 1   
    32    11    35 1   
    33    12    13 1   
    34    12    36 1   
    35    12    37 1   
    36    13    17 1   
    37    13    38 1   
    38    14    39 1   
    39    14    40 1   
@<TRIPOS>SUBSTRUCTURE
     1 3V3         1 TEMP              0 ****  ****    0 ROOT
