@<TRIPOS>MOLECULE
3V5
   37    37     1     0     0
SMALL
No Charge or Current Charge


@<TRIPOS>ATOM
      1 OAF          0.0610    -2.1650     1.8750 o          1 3V5      -0.715000
      2 CAS          0.2900    -2.4220     0.6980 c          1 3V5       0.727000
      3 OAH          0.6530    -3.5390     0.3510 o          1 3V5      -0.715000
      4 CAX          0.1080    -1.3030    -0.4140 c5         1 3V5       0.035500
      5 CAW          0.8450     0.0040     0.0520 c5         1 3V5       0.075300
      6 SAQ          2.1660     0.4390    -1.1970 ss         1 3V5      -0.528000
      7 CAK          2.9370     1.9290    -0.4390 c3         1 3V5       0.337800
      8 NAN          3.7280     1.4170     0.6810 n7         1 3V5      -0.892400
      9 CAJ          4.9180     0.7110     0.3130 c3         1 3V5       0.396000
     10 NAB          5.5240     0.5300     1.6030 n8         1 3V5      -1.010200
     11 CAM         -0.2680     1.0910    -0.0270 c5         1 3V5      -0.124400
     12 NAO         -1.3160    -0.8760    -0.6920 n7         1 3V5      -0.786400
     13 CAV         -1.5340     0.2430     0.2410 c5         1 3V5       0.171500
     14 CAY         -2.8690     0.9870     0.0150 c3         1 3V5      -0.284700
     15 CAR         -4.0760     0.1570     0.4350 c          1 3V5       0.574100
     16 CAA         -4.8030     0.6060     1.7030 c3         1 3V5      -0.207100
     17 OAE         -4.4550    -0.8200    -0.1950 o          1 3V5      -0.460100
     18 CAT         -3.0870     1.4590    -1.4110 c          1 3V5       0.585900
     19 OAG         -3.2510     2.6390    -1.7020 o          1 3V5      -0.533100
     20 H2           0.5570    -1.7050    -1.3320 h1         1 3V5       0.058700
     21 H3           1.2660    -0.0860     1.0630 h1         1 3V5       0.078700
     22 H4           3.5620     2.4490    -1.1770 h2         1 3V5       0.068200
     23 H5           2.1440     2.6090    -0.1010 h2         1 3V5       0.068200
     24 H6           3.1320     0.7450     1.1590 hn         1 3V5       0.431000
     25 H8           4.7240    -0.2500    -0.1840 h2         1 3V5       0.039700
     26 H9           5.5620     1.3380    -0.3200 h2         1 3V5       0.039700
     27 H10          5.1670    -0.3420     2.0010 hn         1 3V5       0.394000
     28 H11          6.5220     0.3460     1.4580 hn         1 3V5       0.394000
     29 H13         -0.1280     1.8830     0.7170 hc         1 3V5       0.039200
     30 H14         -0.3060     1.5700    -1.0130 hc         1 3V5       0.039200
     31 H15         -1.3470    -0.5070    -1.6470 hn         1 3V5       0.354000
     32 H17         -1.5250    -0.1150     1.2850 h1         1 3V5       0.121700
     33 H18         -2.8490     1.8760     0.6560 hc         1 3V5       0.076700
     34 H19         -5.1270     1.6460     1.5790 hc         1 3V5       0.054700
     35 H20         -5.6440    -0.0480     1.9640 hc         1 3V5       0.054700
     36 H21         -4.0790     0.6840     2.5220 hc         1 3V5       0.054700
     37 H22         -3.0940     0.6700    -2.1950 h4         1 3V5      -0.008800
@<TRIPOS>BOND
     1     1     2 1   
     2     2     3 1   
     3     2     4 1   
     4     4     5 1   
     5     4    12 1   
     6     4    20 1   
     7     5     6 1   
     8     5    11 1   
     9     5    21 1   
    10     6     7 1   
    11     7     8 1   
    12     7    22 1   
    13     7    23 1   
    14     8     9 1   
    15     8    24 1   
    16     9    10 1   
    17     9    25 1   
    18     9    26 1   
    19    10    27 1   
    20    10    28 1   
    21    11    13 1   
    22    11    29 1   
    23    11    30 1   
    24    12    13 1   
    25    12    31 1   
    26    13    14 1   
    27    13    32 1   
    28    14    15 1   
    29    14    18 1   
    30    14    33 1   
    31    15    16 1   
    32    15    17 2   
    33    16    34 1   
    34    16    35 1   
    35    16    36 1   
    36    18    19 2   
    37    18    37 1   
@<TRIPOS>SUBSTRUCTURE
     1 3V5         1 TEMP              0 ****  ****    0 ROOT
