@<TRIPOS>MOLECULE
3V5
   37    37     1     0     0
SMALL
bcc


@<TRIPOS>ATOM
      1 OAF         -0.2500    -2.8820     0.7230 o          1 3V5      -0.820300
      2 CAS          0.3600    -2.5560    -0.3130 c          1 3V5       0.937600
      3 OAH          1.2440    -3.2120    -0.9010 o          1 3V5      -0.820300
      4 CAX          0.0470    -1.1720    -0.9080 c5         1 3V5       0.035500
      5 CAW          0.9280    -0.0990    -0.1820 c5         1 3V5       0.027400
      6 SAQ          2.1810     0.5540    -1.3150 ss         1 3V5      -0.432200
      7 CAK          2.9880     1.8280    -0.2480 c3         1 3V5       0.289900
      8 NAN          3.5120     1.3910     1.0050 n7         1 3V5      -0.837200
      9 CAJ          4.5050     0.3400     0.9580 c3         1 3V5       0.396000
     10 NAB          5.7230     0.8490     0.3690 n8         1 3V5      -0.899800
     11 CAM         -0.0750     0.9320     0.3350 c5         1 3V5      -0.124400
     12 NAO         -1.3470    -0.7620    -0.7250 n7         1 3V5      -0.731200
     13 CAV         -1.3520     0.0950     0.4530 c5         1 3V5       0.171500
     14 CAY         -2.6330     0.9150     0.6310 c3         1 3V5      -0.284700
     15 CAR         -3.8360     0.0790     1.0660 c          1 3V5       0.574100
     16 CAA         -5.1750     0.7420     0.9170 c3         1 3V5      -0.207100
     17 OAE         -3.7040    -1.0190     1.5470 o          1 3V5      -0.460100
     18 CAT         -2.9470     1.7380    -0.5960 c          1 3V5       0.585900
     19 OAG         -2.7500     2.9230    -0.6820 o          1 3V5      -0.533100
     20 H2           0.2630    -1.1900    -1.9790 h1         1 3V5       0.058700
     21 H3           1.4470    -0.5550     0.6640 h1         1 3V5       0.078700
     22 H4           3.7910     2.2230    -0.8700 h2         1 3V5       0.068200
     23 H5           2.2700     2.6290    -0.0740 h2         1 3V5       0.068200
     24 H6           2.7730     1.1560     1.6530 hn         1 3V5       0.375800
     25 H8           4.6210    -0.0240     1.9860 h2         1 3V5       0.039700
     26 H9           4.1780    -0.5160     0.3520 h2         1 3V5       0.039700
     27 H10          6.2020     1.4470     1.0300 hn         1 3V5       0.338800
     28 H11          6.3500     0.0830     0.1620 hn         1 3V5       0.338800
     29 H13          0.2260     1.3790     1.2840 hc         1 3V5       0.039200
     30 H14         -0.1990     1.7390    -0.3920 hc         1 3V5       0.039200
     31 H15         -1.5960    -0.2100    -1.5380 hn         1 3V5       0.298800
     32 H17         -1.2630    -0.5530     1.3270 h1         1 3V5       0.121700
     33 H18         -2.4640     1.6250     1.4510 hc         1 3V5       0.076700
     34 H19         -5.4490     0.7920    -0.1410 hc         1 3V5       0.054700
     35 H20         -5.9500     0.1920     1.4450 hc         1 3V5       0.054700
     36 H21         -5.1430     1.7690     1.2850 hc         1 3V5       0.054700
     37 H22         -3.3680     1.1790    -1.4520 h4         1 3V5      -0.008800
@<TRIPOS>BOND
     1     1     2 1   
     2     2     3 1   
     3     2     4 1   
     4     4     5 1   
     5     4    12 1   
     6     4    20 1   
     7     5     6 1   
     8     5    11 1   
     9     5    21 1   
    10     6     7 1   
    11     7     8 1   
    12     7    22 1   
    13     7    23 1   
    14     8     9 1   
    15     8    24 1   
    16     9    10 1   
    17     9    25 1   
    18     9    26 1   
    19    10    27 1   
    20    10    28 1   
    21    11    13 1   
    22    11    29 1   
    23    11    30 1   
    24    12    13 1   
    25    12    31 1   
    26    13    14 1   
    27    13    32 1   
    28    14    15 1   
    29    14    18 1   
    30    14    33 1   
    31    15    16 1   
    32    15    17 2   
    33    16    34 1   
    34    16    35 1   
    35    16    36 1   
    36    18    19 2   
    37    18    37 1   
@<TRIPOS>SUBSTRUCTURE
     1 3V5         1 TEMP              0 ****  ****    0 ROOT
