@<TRIPOS>MOLECULE
3V6
   46    47     1     0     0
SMALL
No Charge or Current Charge


@<TRIPOS>ATOM
      1 ClI         -4.2680    -0.4590     0.5230 cl         1 3V6      -0.217500
      2 CAT         -2.7130     0.4640     0.7830 c3         1 3V6       0.312300
      3 ClJ         -2.9100     1.5120     2.2630 cl         1 3V6      -0.217500
      4 CAX         -1.4410    -0.4690     0.8630 c6         1 3V6       0.202000
      5 CAC         -1.5430    -1.3740     2.1420 c3         1 3V6      -0.110100
      6 OAM         -1.4990    -1.3640    -0.2690 os         1 3V6      -0.471100
      7 CAO         -0.4350    -2.0890    -0.7580 c          1 3V6       0.693300
      8 OAE         -0.6410    -2.9320    -1.6170 o          1 3V6      -0.478000
      9 CAQ          0.9570    -1.6830    -0.2800 ce         1 3V6      -0.318400
     10 CAN          2.0900    -2.2480    -0.7800 c2         1 3V6       0.173900
     11 OAG          2.1030    -3.2010    -1.7260 oh         1 3V6      -0.487100
     12 CAK          3.5090    -1.8270    -0.3960 c6         1 3V6      -0.091200
     13 CAS          3.5970    -0.8980     0.8420 c6         1 3V6      -0.086700
     14 CAB          5.0120    -0.2520     0.9360 c3         1 3V6      -0.092100
     15 CAU          2.4470     0.1420     0.8060 c6         1 3V6       0.184300
     16 OAH          2.5370     1.0170     1.9380 oh         1 3V6      -0.650000
     17 CAW          1.0820    -0.6070     0.8290 c6         1 3V6      -0.018500
     18 CAV         -0.1220     0.3630     0.7940 c6         1 3V6       0.088700
     19 NAL         -0.0540     1.1930    -0.4350 ns         1 3V6      -0.513900
     20 C           -0.2860     2.5500    -0.5140 c          1 3V6       0.607100
     21 O           -0.6090     3.2070     0.4680 o          1 3V6      -0.575100
     22 CA          -0.1360     3.1760    -1.9490 c3         1 3V6       0.080500
     23 CB           1.0350     4.1780    -2.0030 c3         1 3V6      -0.134100
     24 N           -1.3680     3.8280    -2.4990 n8         1 3V6      -0.973200
     25 H1          -2.6120     1.1320    -0.0770 h2         1 3V6       0.104700
     26 H2          -2.5490    -1.7880     2.2730 hc         1 3V6       0.061033
     27 H3          -0.8640    -2.2330     2.0990 hc         1 3V6       0.061033
     28 H4          -1.3030    -0.8110     3.0510 hc         1 3V6       0.061033
     29 H5           3.0380    -3.4080    -1.9310 ho         1 3V6       0.470000
     30 H6           4.1300    -2.7160    -0.2160 hc         1 3V6       0.060700
     31 H7           3.9530    -1.3120    -1.2600 hc         1 3V6       0.060700
     32 H8           3.4800    -1.5150     1.7450 hc         1 3V6       0.073700
     33 H9           5.1900     0.4460     0.1090 hc         1 3V6       0.040367
     34 H10          5.1480     0.2970     1.8760 hc         1 3V6       0.040367
     35 H11          5.7970    -1.0180     0.8980 hc         1 3V6       0.040367
     36 H12          2.5310     0.7240    -0.1240 h1         1 3V6       0.032700
     37 H13          3.3820     1.5070     1.8460 ho         1 3V6       0.453000
     38 H14          1.0670    -1.1350     1.7920 hc         1 3V6       0.087700
     39 H15         -0.0710     1.0210     1.6750 h1         1 3V6       0.121700
     40 H16          0.1950     0.7310    -1.3020 hn         1 3V6       0.314500
     41 H17          0.1170     2.3470    -2.6260 h1         1 3V6       0.071700
     42 H18          1.9650     3.6950    -1.6780 hc         1 3V6       0.042367
     43 H19          1.1880     4.5500    -3.0230 hc         1 3V6       0.042367
     44 H20          0.8500     5.0360    -1.3450 hc         1 3V6       0.042367
     45 H21         -1.6420     4.6030    -1.8800 hn         1 3V6       0.405500
     46 H22         -1.1410     4.2970    -3.3840 hn         1 3V6       0.405500
@<TRIPOS>BOND
     1     1     2 1   
     2     2     3 1   
     3     2     4 1   
     4     2    25 1   
     5     4     5 1   
     6     4     6 1   
     7     4    18 1   
     8     5    26 1   
     9     5    27 1   
    10     5    28 1   
    11     6     7 1   
    12     7     8 2   
    13     7     9 1   
    14     9    10 2   
    15     9    17 1   
    16    10    11 1   
    17    10    12 1   
    18    11    29 1   
    19    12    13 1   
    20    12    30 1   
    21    12    31 1   
    22    13    14 1   
    23    13    15 1   
    24    13    32 1   
    25    14    33 1   
    26    14    34 1   
    27    14    35 1   
    28    15    16 1   
    29    15    17 1   
    30    15    36 1   
    31    16    37 1   
    32    17    18 1   
    33    17    38 1   
    34    18    19 1   
    35    18    39 1   
    36    19    20 1   
    37    19    40 1   
    38    20    21 2   
    39    20    22 1   
    40    22    23 1   
    41    22    24 1   
    42    22    41 1   
    43    23    42 1   
    44    23    43 1   
    45    23    44 1   
    46    24    45 1   
    47    24    46 1   
@<TRIPOS>SUBSTRUCTURE
     1 3V6         1 TEMP              0 ****  ****    0 ROOT
