@<TRIPOS>MOLECULE
3V6
   46    47     1     0     0
SMALL
bcc


@<TRIPOS>ATOM
      1 CLI         -4.2110    -1.0000     0.5580 cl         1 3V6      -0.140900
      2 CAT         -2.7910     0.0680     0.5070 c3         1 3V6       0.159100
      3 CLJ         -3.0930     1.4960     1.5140 cl         1 3V6      -0.140900
      4 CAX         -1.5100    -0.6640     0.9550 c6         1 3V6       0.178800
      5 CAC         -1.6330    -1.2210     2.3650 c3         1 3V6      -0.110100
      6 OAM         -1.4320    -1.7550     0.0340 os         1 3V6      -0.447900
      7 CAO         -0.3230    -2.1940    -0.6020 c          1 3V6       0.768800
      8 OAE         -0.4920    -3.1050    -1.3750 o          1 3V6      -0.553500
      9 CAQ          0.9460    -1.5440    -0.2960 ce         1 3V6      -0.318400
     10 CAN          2.0550    -1.8010    -1.0340 c2         1 3V6       0.173900
     11 OAG          2.0180    -2.5970    -2.0940 oh         1 3V6      -0.448100
     12 CAK          3.3830    -1.1850    -0.7200 c6         1 3V6      -0.091200
     13 CAS          3.4750    -0.5970     0.6810 c6         1 3V6      -0.086700
     14 CAB          4.7690     0.1860     0.8470 c3         1 3V6      -0.092100
     15 CAU          2.2400     0.2680     0.9160 c6         1 3V6       0.161100
     16 OAH          2.2520     0.9030     2.1720 oh         1 3V6      -0.587800
     17 CAW          0.9830    -0.5910     0.8720 c6         1 3V6      -0.018500
     18 CAV         -0.2890     0.2660     0.8320 c6         1 3V6       0.088700
     19 NAL         -0.3320     1.0740    -0.3640 ns         1 3V6      -0.580900
     20 C           -0.1780     2.4190    -0.3740 c          1 3V6       0.674100
     21 O           -0.1170     3.0970     0.6350 o          1 3V6      -0.575100
     22 CA          -0.0220     3.0190    -1.7650 c3         1 3V6       0.080500
     23 CB           1.4460     2.8890    -2.1910 c3         1 3V6      -0.134100
     24 N           -0.5320     4.3750    -1.7560 n8         1 3V6      -0.862800
     25 H1          -2.7030     0.4140    -0.5200 h2         1 3V6       0.104700
     26 H2          -2.4710    -1.9110     2.4460 hc         1 3V6       0.061033
     27 H3          -0.7340    -1.7640     2.6500 hc         1 3V6       0.061033
     28 H4          -1.7750    -0.4200     3.0890 hc         1 3V6       0.061033
     29 H5           2.8910    -2.6480    -2.5040 ho         1 3V6       0.431000
     30 H6           4.1600    -1.9440    -0.8560 hc         1 3V6       0.060700
     31 H7           3.5850    -0.4110    -1.4720 hc         1 3V6       0.060700
     32 H8           3.4630    -1.4230     1.4030 hc         1 3V6       0.073700
     33 H9           4.7930     1.0510     0.1780 hc         1 3V6       0.040367
     34 H10          4.8990     0.5410     1.8690 hc         1 3V6       0.040367
     35 H11          5.6330    -0.4360     0.6110 hc         1 3V6       0.040367
     36 H12          2.2020     1.0110     0.1040 h1         1 3V6       0.032700
     37 H13          2.8000     1.6910     2.1210 ho         1 3V6       0.414000
     38 H14          0.9770    -1.1650     1.8060 hc         1 3V6       0.087700
     39 H15         -0.2940     0.9420     1.6860 h1         1 3V6       0.121700
     40 H16         -0.2880     0.6000    -1.2550 hn         1 3V6       0.314500
     41 H17         -0.6320     2.4400    -2.4660 h1         1 3V6       0.071700
     42 H18          1.7700     1.8470    -2.2440 hc         1 3V6       0.042367
     43 H19          1.5840     3.3210    -3.1820 hc         1 3V6       0.042367
     44 H20          2.1020     3.4160    -1.4970 hc         1 3V6       0.042367
     45 H21          0.0230     4.9430    -1.1270 hn         1 3V6       0.350300
     46 H22         -0.4060     4.7750    -2.6770 hn         1 3V6       0.350300
@<TRIPOS>BOND
     1     1     2 1   
     2     2     3 1   
     3     2     4 1   
     4     2    25 1   
     5     4     5 1   
     6     4     6 1   
     7     4    18 1   
     8     5    26 1   
     9     5    27 1   
    10     5    28 1   
    11     6     7 1   
    12     7     8 2   
    13     7     9 1   
    14     9    10 2   
    15     9    17 1   
    16    10    11 1   
    17    10    12 1   
    18    11    29 1   
    19    12    13 1   
    20    12    30 1   
    21    12    31 1   
    22    13    14 1   
    23    13    15 1   
    24    13    32 1   
    25    14    33 1   
    26    14    34 1   
    27    14    35 1   
    28    15    16 1   
    29    15    17 1   
    30    15    36 1   
    31    16    37 1   
    32    17    18 1   
    33    17    38 1   
    34    18    19 1   
    35    18    39 1   
    36    19    20 1   
    37    19    40 1   
    38    20    21 2   
    39    20    22 1   
    40    22    23 1   
    41    22    24 1   
    42    22    41 1   
    43    23    42 1   
    44    23    43 1   
    45    23    44 1   
    46    24    45 1   
    47    24    46 1   
@<TRIPOS>SUBSTRUCTURE
     1 3V6         1 TEMP              0 ****  ****    0 ROOT
