@<TRIPOS>MOLECULE
3V7
   22    22     1     0     0
SMALL
bcc


@<TRIPOS>ATOM
      1 C11         -2.0860    -0.2680    -0.0140 cc         1 3V7       0.259600
      2 C12         -1.0630     0.6080    -0.2690 cd         1 3V7      -0.214600
      3 O1           4.4810     0.4230     0.9460 oh         1 3V7      -0.592800
      4 C7           3.6490     0.5400    -0.1870 c3         1 3V7       0.144400
      5 C8           2.2470     0.1080     0.1990 c3         1 3V7      -0.104400
      6 C9           1.3090     0.2000    -0.9960 c3         1 3V7       0.051300
      7 N1          -0.0470    -0.1840    -0.6570 na         1 3V7       0.099400
      8 N2          -0.4030    -1.4530    -0.6390 nd         1 3V7      -0.204800
      9 N3          -1.6330    -1.5150    -0.2540 nc         1 3V7      -0.360000
     10 O8          -3.5360     1.3660     0.8230 oh         1 3V7      -0.603800
     11 C36         -3.4810     0.0190     0.4240 c3         1 3V7       0.124100
     12 H13         -0.9750     1.6790    -0.2120 h4         1 3V7       0.193000
     13 H6           3.6220     1.5720    -0.5610 h1         1 3V7       0.017200
     14 H5           4.0080    -0.0860    -1.0150 h1         1 3V7       0.017200
     15 H7           2.2660    -0.9200     0.5690 hc         1 3V7       0.073200
     16 H8           1.8750     0.7440     1.0070 hc         1 3V7       0.073200
     17 H10          1.2700     1.2180    -1.3830 h1         1 3V7       0.067200
     18 H9           1.6410    -0.4470    -1.8070 h1         1 3V7       0.067200
     19 H44         -4.1710    -0.1890    -0.4030 h1         1 3V7       0.038200
     20 H45         -3.7550    -0.6660     1.2360 h1         1 3V7       0.038200
     21 H2          -4.4550     1.5940     0.9860 ho         1 3V7       0.409000
     22 H1           5.3590     0.7310     0.7050 ho         1 3V7       0.408000
@<TRIPOS>BOND
     1     1     2 2   
     2     1     9 1   
     3     1    11 1   
     4     2     7 1   
     5     2    12 1   
     6     3     4 1   
     7     3    22 1   
     8     4     5 1   
     9     4    13 1   
    10     4    14 1   
    11     5     6 1   
    12     5    15 1   
    13     5    16 1   
    14     6     7 1   
    15     6    17 1   
    16     6    18 1   
    17     7     8 1   
    18     8     9 2   
    19    10    11 1   
    20    10    21 1   
    21    11    19 1   
    22    11    20 1   
@<TRIPOS>SUBSTRUCTURE
     1 3V7         1 TEMP              0 ****  ****    0 ROOT
