@<TRIPOS>MOLECULE
3V7
   22    22     1     0     0
SMALL
No Charge or Current Charge


@<TRIPOS>ATOM
      1 C11         -2.1170    -0.2410    -0.0960 cc         1 3V7       0.194300
      2 C12         -1.0550     0.5740    -0.3420 cd         1 3V7      -0.182000
      3 O1           4.4830     0.7310     0.9990 oh         1 3V7      -0.655000
      4 C7           3.7030     0.5620    -0.1870 c3         1 3V7       0.167600
      5 C8           2.2520     0.2220     0.1960 c3         1 3V7      -0.104400
      6 C9           1.3410     0.0240    -1.0350 c3         1 3V7       0.080600
      7 N1          -0.0480    -0.3010    -0.6760 na         1 3V7       0.120800
      8 N2          -0.5030    -1.5950    -0.6320 nd         1 3V7      -0.204800
      9 N3          -1.7640    -1.5510    -0.2800 nc         1 3V7      -0.360000
     10 O8          -3.5260     1.0470     1.4440 oh         1 3V7      -0.666000
     11 C36         -3.5210     0.1550     0.3130 c3         1 3V7       0.147300
     12 H13         -0.9470     1.6500    -0.3010 h4         1 3V7       0.175000
     13 H6           3.7150     1.4830    -0.7850 h1         1 3V7       0.017200
     14 H5           4.1160    -0.2480    -0.8030 h1         1 3V7       0.017200
     15 H7           2.2430    -0.6930     0.8010 hc         1 3V7       0.073200
     16 H8           1.8450     1.0260     0.8210 hc         1 3V7       0.073200
     17 H10          1.3350     0.9410    -1.6370 h1         1 3V7       0.067200
     18 H9           1.7400    -0.7850    -1.6600 h1         1 3V7       0.067200
     19 H44         -4.0080     0.6330    -0.5470 h1         1 3V7       0.038200
     20 H45         -4.0940    -0.7530     0.5470 h1         1 3V7       0.038200
     21 H2          -4.4680     1.2470     1.6480 ho         1 3V7       0.448000
     22 H1           5.3990     0.9450     0.7110 ho         1 3V7       0.447000
@<TRIPOS>BOND
     1     1     2 2   
     2     1     9 1   
     3     1    11 1   
     4     2     7 1   
     5     2    12 1   
     6     3     4 1   
     7     3    22 1   
     8     4     5 1   
     9     4    13 1   
    10     4    14 1   
    11     5     6 1   
    12     5    15 1   
    13     5    16 1   
    14     6     7 1   
    15     6    17 1   
    16     6    18 1   
    17     7     8 1   
    18     8     9 2   
    19    10    11 1   
    20    10    21 1   
    21    11    19 1   
    22    11    20 1   
@<TRIPOS>SUBSTRUCTURE
     1 3V7         1 TEMP              0 ****  ****    0 ROOT
