@<TRIPOS>MOLECULE
3V8
   30    31     1     0     0
SMALL
bcc


@<TRIPOS>ATOM
      1 C18         -2.5470     0.6830    -1.1310 c5         1 3V8      -0.104400
      2 C17         -3.4300    -0.2300    -0.2550 c5         1 3V8       0.012500
      3 C16         -2.6710    -1.5100     0.1460 c          1 3V8       0.936600
      4 C19         -1.9040     1.6650    -0.1360 c5         1 3V8       0.024000
      5 C20         -2.6830     1.4360     1.1870 c5         1 3V8       0.139800
      6 C11          3.4400    -0.5640    -0.4920 c3         1 3V8      -0.201400
      7 C12          2.7560     0.0220     0.7400 c3         1 3V8      -0.074700
      8 C10          4.7430    -1.3350    -0.2170 c          1 3V8       0.929600
      9 O3           5.1760    -1.3470     0.9510 o          1 3V8      -0.861800
     10 O5          -2.3120    -1.6410     1.3340 o          1 3V8      -0.825800
     11 N4          -3.8280     0.6030     0.8730 n7         1 3V8      -0.745200
     12 N5          -0.4710     1.4890     0.0200 na         1 3V8       0.109400
     13 C30          0.2070     0.4480     0.5410 cc         1 3V8      -0.222600
     14 C31          1.5280     0.7900     0.3900 cd         1 3V8       0.266600
     15 N8           1.5660     2.0030    -0.2050 nd         1 3V8      -0.387000
     16 N9           0.3620     2.4120    -0.4240 nc         1 3V8      -0.281800
     17 H21         -1.8120     0.1410    -1.7270 hc         1 3V8       0.049200
     18 H20         -3.1710     1.2460    -1.8270 hc         1 3V8       0.049200
     19 H19         -4.3240    -0.5360    -0.8040 h1         1 3V8       0.039700
     20 H22         -2.0180     2.6920    -0.4790 h1         1 3V8       0.053700
     21 H24         -2.0420     0.9330     1.9130 h1         1 3V8       0.054200
     22 H23         -2.9980     2.3790     1.6330 h1         1 3V8       0.054200
     23 H11          2.7430    -1.2240    -1.0190 hc         1 3V8       0.026700
     24 H10          3.6610     0.2400    -1.2030 hc         1 3V8       0.026700
     25 H13          2.4930    -0.7770     1.4340 hc         1 3V8       0.046700
     26 H12          3.4550     0.6720     1.2710 hc         1 3V8       0.046700
     27 H42         -0.2810    -0.4120     0.9700 h4         1 3V8       0.231000
     28 OXT         -2.4610    -2.3090    -0.7880 o          1 3V8      -0.825800
     29 H2          -4.5870     1.2010     0.5680 hn         1 3V8       0.294800
     30 O1           5.2690    -1.8840    -1.2080 o          1 3V8      -0.861800
@<TRIPOS>BOND
     1     1     2 1   
     2     1     4 1   
     3     1    17 1   
     4     1    18 1   
     5     2     3 1   
     6     2    11 1   
     7     2    19 1   
     8     3    10 1   
     9     3    28 1   
    10     4     5 1   
    11     4    12 1   
    12     4    20 1   
    13     5    11 1   
    14     5    21 1   
    15     5    22 1   
    16     6     7 1   
    17     6     8 1   
    18     6    23 1   
    19     6    24 1   
    20     7    14 1   
    21     7    25 1   
    22     7    26 1   
    23     8     9 1   
    24     8    30 1   
    25    11    29 1   
    26    12    13 1   
    27    12    16 1   
    28    13    14 2   
    29    13    27 1   
    30    14    15 1   
    31    15    16 2   
@<TRIPOS>SUBSTRUCTURE
     1 3V8         1 TEMP              0 ****  ****    0 ROOT
