@<TRIPOS>MOLECULE
3V8
   30    31     1     0     0
SMALL
No Charge or Current Charge


@<TRIPOS>ATOM
      1 C18         -2.4850     0.4640    -1.0070 c5         1 3V8      -0.104400
      2 C17         -3.7530    -0.0740    -0.2540 c5         1 3V8       0.012500
      3 C16         -3.5540    -1.6010     0.1700 c          1 3V8       0.726000
      4 C19         -1.8380     1.4990    -0.0250 c5         1 3V8       0.053300
      5 C20         -2.5770     1.2050     1.3070 c5         1 3V8       0.139800
      6 C11          3.6380    -0.4120    -0.6730 c3         1 3V8      -0.201400
      7 C12          2.9670     0.1330     0.6140 c3         1 3V8      -0.074700
      8 C10          4.9430    -1.1480    -0.3250 c          1 3V8       0.719000
      9 O3           5.9770    -0.4990    -0.2750 o          1 3V8      -0.756500
     10 O5          -4.4900    -2.3750     0.0110 o          1 3V8      -0.720500
     11 N4          -3.9580     0.9040     0.8710 n7         1 3V8      -0.800400
     12 N5          -0.3740     1.4480     0.0680 na         1 3V8       0.130800
     13 C30          0.4040     0.3670     0.4010 cc         1 3V8      -0.190000
     14 C31          1.6750     0.8610     0.3410 cd         1 3V8       0.201300
     15 N8           1.6310     2.1950    -0.0100 nd         1 3V8      -0.387000
     16 N9           0.3870     2.5540    -0.1770 nc         1 3V8      -0.281800
     17 H21         -1.7960    -0.3420    -1.2840 hc         1 3V8       0.049200
     18 H20         -2.7630     0.9540    -1.9470 hc         1 3V8       0.049200
     19 H19         -4.6260    -0.0530    -0.9220 h1         1 3V8       0.039700
     20 H22         -2.1270     2.5060    -0.3540 h1         1 3V8       0.053700
     21 H24         -2.1340     0.3460     1.8310 h1         1 3V8       0.054200
     22 H23         -2.5420     2.0650     1.9910 h1         1 3V8       0.054200
     23 H11          2.9130    -1.1050    -1.1170 hc         1 3V8       0.026700
     24 H10          3.8480     0.4660    -1.2960 hc         1 3V8       0.026700
     25 H13          2.7780    -0.7010     1.3010 hc         1 3V8       0.046700
     26 H12          3.6670     0.8020     1.1300 hc         1 3V8       0.046700
     27 H42          0.0140    -0.6130     0.6380 h4         1 3V8       0.213000
     28 OXT         -2.4820    -1.9860     0.6240 o          1 3V8      -0.720500
     29 H2          -4.3650     1.7640     0.4880 hn         1 3V8       0.350000
     30 O1           4.8810    -2.3390    -0.0630 o          1 3V8      -0.756500
@<TRIPOS>BOND
     1     1     2 1   
     2     1     4 1   
     3     1    17 1   
     4     1    18 1   
     5     2     3 1   
     6     2    11 1   
     7     2    19 1   
     8     3    10 1   
     9     3    28 1   
    10     4     5 1   
    11     4    12 1   
    12     4    20 1   
    13     5    11 1   
    14     5    21 1   
    15     5    22 1   
    16     6     7 1   
    17     6     8 1   
    18     6    23 1   
    19     6    24 1   
    20     7    14 1   
    21     7    25 1   
    22     7    26 1   
    23     8     9 1   
    24     8    30 1   
    25    11    29 1   
    26    12    13 1   
    27    12    16 1   
    28    13    14 2   
    29    13    27 1   
    30    14    15 1   
    31    15    16 2   
@<TRIPOS>SUBSTRUCTURE
     1 3V8         1 TEMP              0 ****  ****    0 ROOT
