@<TRIPOS>MOLECULE
3V9
   52    53     1     0     0
SMALL
abcg2


@<TRIPOS>ATOM
      1 O1          18.7760    16.8140     5.5980 o          1 3V9      -0.901167
      2 O2          16.7280    16.9320     4.0550 o          1 3V9      -0.901167
      3 O3          18.0510    14.7520     4.2900 o          1 3V9      -0.901167
      4 P           17.6170    16.0810     4.9410 p5         1 3V9       1.296900
      5 O01         16.5780    15.6290     6.1710 os         1 3V9      -0.601400
      6 C02         17.0350    14.7020     7.1470 c3         1 3V9       0.243600
      7 C03         16.0730    13.5110     7.2970 c3         1 3V9      -0.091000
      8 C04         14.7360    14.0230     7.8410 c3         1 3V9      -0.072100
      9 C25         16.7000    12.5210     8.2840 c3         1 3V9      -0.072100
     10 C05         15.9000    12.8530     5.8900 c3         1 3V9       0.143300
     11 O24         17.1450    12.5690     5.2860 oh         1 3V9      -0.813000
     12 C06         15.0690    11.5720     5.9570 c          1 3V9       0.590100
     13 O23         13.8600    11.5910     6.2080 o          1 3V9      -0.663100
     14 N07         15.7540    10.4420     5.7230 ns         1 3V9      -0.510900
     15 C08         15.1760     9.1190     5.8150 c3         1 3V9       0.117000
     16 C09         15.3550     8.5080     7.2140 c3         1 3V9      -0.183400
     17 C10         14.6810     7.1530     7.2910 c          1 3V9       0.597100
     18 O22         13.4530     7.0540     7.3460 o          1 3V9      -0.616100
     19 N11         15.5070     6.0890     7.2560 ns         1 3V9      -0.518900
     20 C12         15.0590     4.7050     7.2970 c3         1 3V9       0.144300
     21 C13         15.6300     3.9470     8.4710 ca         1 3V9      -0.100300
     22 C21         15.4320     4.4380     9.7770 ca         1 3V9      -0.071000
     23 C17         15.9690     3.7120    10.8110 ca         1 3V9       0.049100
     24 O18         15.8870     3.9600    12.1590 os         1 3V9      -0.346100
     25 C19         16.7840     3.0230    12.7780 c5         1 3V9       0.370600
     26 O20         17.0590     2.0030    11.8050 os         1 3V9      -0.358100
     27 C16         16.6760     2.5330    10.5980 ca         1 3V9       0.047100
     28 C15         16.8780     2.0310     9.3350 ca         1 3V9      -0.102000
     29 C14         16.3410     2.7700     8.2670 ca         1 3V9      -0.109000
     30 H3          18.0330    14.3400     6.8930 h1         1 3V9       0.005200
     31 H4          17.1060    15.2080     8.1170 h1         1 3V9       0.005200
     32 H5          14.9030    14.5370     8.7920 hc         1 3V9       0.019200
     33 H6          14.2790    14.7320     7.1500 hc         1 3V9       0.019200
     34 H7          14.0350    13.2090     8.0070 hc         1 3V9       0.019200
     35 H8          16.9550    13.0240     9.2190 hc         1 3V9       0.019200
     36 H9          16.0080    11.7110     8.5200 hc         1 3V9       0.019200
     37 H10         17.6120    12.0830     7.8730 hc         1 3V9       0.019200
     38 H11         15.3290    13.5540     5.2730 h1         1 3V9       0.083700
     39 H12         17.5110    13.4280     4.8860 ho         1 3V9       0.570000
     40 H13         16.7340    10.5500     5.5090 hn         1 3V9       0.351500
     41 H14         14.1150     9.1910     5.5810 h1         1 3V9       0.048200
     42 H15         15.6510     8.4820     5.0690 h1         1 3V9       0.048200
     43 H16         16.4180     8.4350     7.4480 hc         1 3V9       0.070700
     44 H17         14.8830     9.1580     7.9520 hc         1 3V9       0.070700
     45 H18         16.5010     6.2570     7.2250 hn         1 3V9       0.315500
     46 H19         13.9710     4.7350     7.3480 h1         1 3V9       0.063700
     47 H20         15.3370     4.2020     6.3690 h1         1 3V9       0.063700
     48 H21         14.8830     5.3530     9.9550 ha         1 3V9       0.151000
     49 H22         16.3020     2.5780    13.6450 h2         1 3V9       0.063200
     50 H23         17.7150     3.5340    13.0410 h2         1 3V9       0.063200
     51 H24         17.4260     1.1140     9.1700 ha         1 3V9       0.127000
     52 H25         16.4900     2.4130     7.2560 ha         1 3V9       0.117000
@<TRIPOS>BOND
     1     1     4 1   
     2     2     4 1   
     3     3     4 1   
     4     4     5 1   
     5     5     6 1   
     6     6     7 1   
     7     6    30 1   
     8     6    31 1   
     9     7     8 1   
    10     7     9 1   
    11     7    10 1   
    12     8    32 1   
    13     8    33 1   
    14     8    34 1   
    15     9    35 1   
    16     9    36 1   
    17     9    37 1   
    18    10    11 1   
    19    10    12 1   
    20    10    38 1   
    21    11    39 1   
    22    12    13 2   
    23    12    14 1   
    24    14    15 1   
    25    14    40 1   
    26    15    16 1   
    27    15    41 1   
    28    15    42 1   
    29    16    17 1   
    30    16    43 1   
    31    16    44 1   
    32    17    18 2   
    33    17    19 1   
    34    19    20 1   
    35    19    45 1   
    36    20    21 1   
    37    20    46 1   
    38    20    47 1   
    39    21    22 ar  
    40    21    29 ar  
    41    22    23 ar  
    42    22    48 1   
    43    23    24 1   
    44    23    27 ar  
    45    24    25 1   
    46    25    26 1   
    47    25    49 1   
    48    25    50 1   
    49    26    27 1   
    50    27    28 ar  
    51    28    29 ar  
    52    28    51 1   
    53    29    52 1   
@<TRIPOS>SUBSTRUCTURE
     1 3V9         1 TEMP              0 ****  ****    0 ROOT
