@<TRIPOS>MOLECULE
3V9
   52    53     1     0     0
SMALL
No Charge or Current Charge


@<TRIPOS>ATOM
      1 O1          19.0260    16.6670     5.6210 o          1 3V9      -0.901167
      2 O2          17.2340    16.8570     3.9880 o          1 3V9      -0.901167
      3 O3          18.2870    14.6990     4.3780 o          1 3V9      -0.901167
      4 P           17.8590    15.9760     5.0100 p5         1 3V9       1.296900
      5 O01         16.7710    15.6530     6.1490 os         1 3V9      -0.601400
      6 C02         17.1000    14.7320     7.2000 c3         1 3V9       0.243600
      7 C03         16.1470    13.4910     7.1630 c3         1 3V9      -0.091000
      8 C04         14.7080    13.9650     7.5200 c3         1 3V9      -0.072100
      9 C25         16.6140    12.4970     8.2670 c3         1 3V9      -0.072100
     10 C05         16.1530    12.7940     5.7480 c3         1 3V9       0.143300
     11 O24         17.5210    12.5090     5.3310 oh         1 3V9      -0.813000
     12 C06         15.2330    11.5200     5.6680 c          1 3V9       0.590100
     13 O23         14.0230    11.5620     5.4680 o          1 3V9      -0.663100
     14 N07         15.9090    10.3230     5.7630 ns         1 3V9      -0.510900
     15 C08         15.2990     8.9950     5.7580 c3         1 3V9       0.117000
     16 C09         14.6560     8.6590     7.1150 c3         1 3V9      -0.183400
     17 C10         14.0710     7.2490     7.0950 c          1 3V9       0.597100
     18 O22         13.0390     6.9710     6.5030 o          1 3V9      -0.616100
     19 N11         14.7700     6.3170     7.8230 ns         1 3V9      -0.518900
     20 C12         14.3830     4.9140     7.9490 c3         1 3V9       0.144300
     21 C13         15.3690     4.1530     8.8210 ca         1 3V9      -0.100300
     22 C21         15.1510     4.0480    10.2140 ca         1 3V9      -0.071000
     23 C17         16.0870     3.3420    10.9810 ca         1 3V9       0.049100
     24 O18         16.0260     3.1410    12.3220 os         1 3V9      -0.346100
     25 C19         17.2640     2.3920    12.5960 c5         1 3V9       0.370600
     26 O20         17.9620     2.1220    11.3280 os         1 3V9      -0.358100
     27 C16         17.1880     2.7630    10.4170 ca         1 3V9       0.047100
     28 C15         17.4380     2.8450     9.0420 ca         1 3V9      -0.102000
     29 C14         16.5150     3.5510     8.2410 ca         1 3V9      -0.109000
     30 H3          18.1430    14.3940     7.1200 h1         1 3V9       0.005200
     31 H4          17.0060    15.2330     8.1730 h1         1 3V9       0.005200
     32 H5          14.7070    14.5400     8.4540 hc         1 3V9       0.019200
     33 H6          14.2930    14.6040     6.7310 hc         1 3V9       0.019200
     34 H7          14.0280    13.1160     7.6610 hc         1 3V9       0.019200
     35 H8          16.6300    12.9880     9.2490 hc         1 3V9       0.019200
     36 H9          15.9410    11.6340     8.3420 hc         1 3V9       0.019200
     37 H10         17.6250    12.1240     8.0650 hc         1 3V9       0.019200
     38 H11         15.7070    13.4990     5.0330 h1         1 3V9       0.083700
     39 H12         17.8680    13.3940     4.9410 ho         1 3V9       0.570000
     40 H13         16.9170    10.4140     5.8430 hn         1 3V9       0.351500
     41 H14         14.5420     8.9490     4.9630 h1         1 3V9       0.048200
     42 H15         16.0780     8.2560     5.5280 h1         1 3V9       0.048200
     43 H16         15.4220     8.7410     7.8950 hc         1 3V9       0.070700
     44 H17         13.8470     9.3720     7.3070 hc         1 3V9       0.070700
     45 H18         15.6100     6.6300     8.2930 hn         1 3V9       0.315500
     46 H19         13.3770     4.8570     8.3860 h1         1 3V9       0.063700
     47 H20         14.3440     4.4610     6.9490 h1         1 3V9       0.063700
     48 H21         14.2820     4.5010    10.6860 ha         1 3V9       0.151000
     49 H22         17.0170     1.4440    13.0890 h2         1 3V9       0.063200
     50 H23         17.9120     2.9940    13.2430 h2         1 3V9       0.063200
     51 H24         18.3180     2.3780     8.6070 ha         1 3V9       0.127000
     52 H25         16.6890     3.6320     7.1690 ha         1 3V9       0.117000
@<TRIPOS>BOND
     1     1     4 1   
     2     2     4 1   
     3     3     4 1   
     4     4     5 1   
     5     5     6 1   
     6     6     7 1   
     7     6    30 1   
     8     6    31 1   
     9     7     8 1   
    10     7     9 1   
    11     7    10 1   
    12     8    32 1   
    13     8    33 1   
    14     8    34 1   
    15     9    35 1   
    16     9    36 1   
    17     9    37 1   
    18    10    11 1   
    19    10    12 1   
    20    10    38 1   
    21    11    39 1   
    22    12    13 2   
    23    12    14 1   
    24    14    15 1   
    25    14    40 1   
    26    15    16 1   
    27    15    41 1   
    28    15    42 1   
    29    16    17 1   
    30    16    43 1   
    31    16    44 1   
    32    17    18 2   
    33    17    19 1   
    34    19    20 1   
    35    19    45 1   
    36    20    21 1   
    37    20    46 1   
    38    20    47 1   
    39    21    22 ar  
    40    21    29 ar  
    41    22    23 ar  
    42    22    48 1   
    43    23    24 1   
    44    23    27 ar  
    45    24    25 1   
    46    25    26 1   
    47    25    49 1   
    48    25    50 1   
    49    26    27 1   
    50    27    28 ar  
    51    28    29 ar  
    52    28    51 1   
    53    29    52 1   
@<TRIPOS>SUBSTRUCTURE
     1 3V9         1 TEMP              0 ****  ****    0 ROOT
