@<TRIPOS>MOLECULE
3VB
   18    17     1     0     0
SMALL
abcg2


@<TRIPOS>ATOM
      1 O6           3.0250    -0.1240    -0.4610 oh         1 3VB      -0.712500
      2 C11          1.8290     0.6010    -0.2960 c3         1 3VB       0.132100
      3 C13          0.6690    -0.3770    -0.2140 c3         1 3VB       0.134800
      4 O7           0.8020    -1.2660     0.8750 oh         1 3VB      -0.708500
      5 C14         -0.6750     0.3600    -0.1940 c3         1 3VB       0.134800
      6 O8          -0.8000     1.2050     0.9320 oh         1 3VB      -0.708500
      7 C15         -1.8350    -0.6140    -0.3040 c3         1 3VB       0.132100
      8 OAA         -3.0330     0.1150    -0.4350 oh         1 3VB      -0.712500
      9 H1           3.7580     0.4970    -0.4190 ho         1 3VB       0.505000
     10 H2           1.8500     1.2160     0.6150 h1         1 3VB       0.030450
     11 H3           1.6510     1.2860    -1.1350 h1         1 3VB       0.030450
     12 H4           0.6860    -1.0010    -1.1150 h1         1 3VB       0.086700
     13 H5           1.0120    -0.7570     1.6660 ho         1 3VB       0.501000
     14 H6          -0.7010     1.0200    -1.0690 h1         1 3VB       0.086700
     15 H7          -1.0100     0.6650     1.7020 ho         1 3VB       0.501000
     16 H8          -1.6630    -1.2690    -1.1680 h1         1 3VB       0.030450
     17 H9          -1.8510    -1.2610     0.5840 h1         1 3VB       0.030450
     18 H10         -3.7650    -0.5060    -0.4040 ho         1 3VB       0.505000
@<TRIPOS>BOND
     1     1     2 1   
     2     1     9 1   
     3     2     3 1   
     4     2    10 1   
     5     2    11 1   
     6     3     4 1   
     7     3     5 1   
     8     3    12 1   
     9     4    13 1   
    10     5     6 1   
    11     5     7 1   
    12     5    14 1   
    13     6    15 1   
    14     7     8 1   
    15     7    16 1   
    16     7    17 1   
    17     8    18 1   
@<TRIPOS>SUBSTRUCTURE
     1 3VB         1 TEMP              0 ****  ****    0 ROOT
