@<TRIPOS>MOLECULE
3VB
   18    17     1     0     0
SMALL
No Charge or Current Charge


@<TRIPOS>ATOM
      1 O6           3.1270    -0.0540    -0.1210 oh         1 3VB      -0.712500
      2 C11          1.8770     0.6570    -0.2250 c3         1 3VB       0.132100
      3 C13          0.6990    -0.3540    -0.2000 c3         1 3VB       0.134800
      4 O7           0.8930    -1.2300     0.9280 oh         1 3VB      -0.708500
      5 C14         -0.7060     0.3360    -0.1820 c3         1 3VB       0.134800
      6 O8          -0.8900     1.1710     0.9790 oh         1 3VB      -0.708500
      7 C15         -1.8850    -0.6740    -0.2320 c3         1 3VB       0.132100
      8 OAA         -3.1330     0.0330    -0.0920 oh         1 3VB      -0.712500
      9 H1           3.8490     0.6110    -0.2240 ho         1 3VB       0.505000
     10 H2           1.7750     1.3680     0.6070 h1         1 3VB       0.030450
     11 H3           1.8370     1.2310    -1.1610 h1         1 3VB       0.030450
     12 H4           0.7610    -0.9370    -1.1320 h1         1 3VB       0.086700
     13 H5           1.8760    -1.2390     1.0370 ho         1 3VB       0.501000
     14 H6          -0.7760     0.9510    -1.0910 h1         1 3VB       0.086700
     15 H7          -1.8720     1.1760     1.0960 ho         1 3VB       0.501000
     16 H8          -1.8530    -1.2140    -1.1880 h1         1 3VB       0.030450
     17 H9          -1.7750    -1.4140     0.5730 h1         1 3VB       0.030450
     18 H10         -3.8570    -0.6280    -0.2120 ho         1 3VB       0.505000
@<TRIPOS>BOND
     1     1     2 1   
     2     1     9 1   
     3     2     3 1   
     4     2    10 1   
     5     2    11 1   
     6     3     4 1   
     7     3     5 1   
     8     3    12 1   
     9     4    13 1   
    10     5     6 1   
    11     5     7 1   
    12     5    14 1   
    13     6    15 1   
    14     7     8 1   
    15     7    16 1   
    16     7    17 1   
    17     8    18 1   
@<TRIPOS>SUBSTRUCTURE
     1 3VB         1 TEMP              0 ****  ****    0 ROOT
