@<TRIPOS>MOLECULE
3VC
   45    49     1     0     0
SMALL
bcc


@<TRIPOS>ATOM
      1 C19          3.6660    -1.4450    -0.3010 ca         1 3VC      -0.236200
      2 N5           4.0740    -2.2180    -1.3570 nc         1 3VC      -0.555100
      3 C21          5.0230    -2.9590    -0.8610 cd         1 3VC       0.398700
      4 N6           5.2600    -2.7170     0.4580 na         1 3VC      -0.362000
      5 C20          4.3940    -1.7420     0.8430 ca         1 3VC       0.452800
      6 N4           4.2460    -1.1740     2.0400 nb         1 3VC      -0.745000
      7 C17          3.2930    -0.2600     2.0340 ca         1 3VC       0.707900
      8 N3           2.5160     0.1230     1.0210 nb         1 3VC      -0.805000
      9 C18          2.6790    -0.4500    -0.1720 ca         1 3VC       0.771200
     10 N7           1.9150    -0.0740    -1.2070 nu         1 3VC      -0.863900
     11 C10          0.8680     0.9180    -1.1210 c3         1 3VC       0.289800
     12 C11          0.5980     1.4550    -2.5250 c3         1 3VC      -0.104100
     13 C1          -0.4080     0.3590    -0.5100 ca         1 3VC      -0.172600
     14 C5          -0.6080    -0.9910    -0.4190 ca         1 3VC      -0.078000
     15 C4          -1.8260    -1.5200     0.0510 ca         1 3VC      -0.156300
     16 C9          -2.0770    -2.9050     0.1620 ca         1 3VC      -0.081000
     17 C8          -3.2890    -3.3580     0.6020 ca         1 3VC      -0.163000
     18 C7          -4.2790    -2.4220     0.9440 ca         1 3VC       0.141900
     19 F1          -5.4600    -2.8930     1.3680 f          1 3VC      -0.140900
     20 C6          -4.0880    -1.0760     0.8600 ca         1 3VC      -0.213300
     21 C3          -2.8380    -0.6010     0.4050 ca         1 3VC       0.424600
     22 N1          -2.6390     0.7300     0.3220 nb         1 3VC      -0.671000
     23 C2          -1.4900     1.1980    -0.0970 cp         1 3VC       0.403300
     24 C12         -1.4200     2.6850    -0.1220 cp         1 3VC       0.349300
     25 C13         -2.5310     3.4210    -0.5320 ca         1 3VC      -0.204300
     26 C14         -2.4520     4.8030    -0.5220 ca         1 3VC      -0.100000
     27 C15         -1.2790     5.4060    -0.0950 ca         1 3VC      -0.239300
     28 C16         -0.2310     4.5880     0.3000 ca         1 3VC       0.401200
     29 N2          -0.2950     3.2640     0.2840 nb         1 3VC      -0.661000
     30 H2           5.5870    -3.7010    -1.4050 h5         1 3VC       0.065800
     31 H4           3.1120     0.2490     2.9750 h5         1 3VC       0.049100
     32 H5           2.0470    -0.5620    -2.0790 hn         1 3VC       0.455800
     33 H6           1.2240     1.7300    -0.4910 h1         1 3VC       0.119700
     34 H7           1.4990     1.9020    -2.9430 hc         1 3VC       0.046367
     35 H8           0.2640     0.6560    -3.1900 hc         1 3VC       0.046367
     36 H9          -0.1780     2.2180    -2.5110 hc         1 3VC       0.046367
     37 H10          0.1700    -1.6810    -0.7220 ha         1 3VC       0.143000
     38 H11         -1.3000    -3.6090    -0.1080 ha         1 3VC       0.140000
     39 H12         -3.4960    -4.4170     0.6890 ha         1 3VC       0.152000
     40 H13         -4.8660    -0.3740     1.1310 ha         1 3VC       0.166000
     41 H14         -3.4300     2.9170    -0.8570 ha         1 3VC       0.157000
     42 H15         -3.2950     5.4000    -0.8450 ha         1 3VC       0.139000
     43 H16         -1.1720     6.4810    -0.0690 ha         1 3VC       0.143000
     44 H17          0.7010     5.0210     0.6450 h4         1 3VC       0.022100
     45 H161         5.9490    -3.1770     1.0330 hn         1 3VC       0.319700
@<TRIPOS>BOND
     1     1     2 1   
     2     1     5 ar  
     3     1     9 ar  
     4     2     3 2   
     5     3     4 1   
     6     3    30 1   
     7     4     5 1   
     8     4    45 1   
     9     5     6 ar  
    10     6     7 ar  
    11     7     8 ar  
    12     7    31 1   
    13     8     9 ar  
    14     9    10 1   
    15    10    11 1   
    16    10    32 1   
    17    11    12 1   
    18    11    13 1   
    19    11    33 1   
    20    12    34 1   
    21    12    35 1   
    22    12    36 1   
    23    13    14 ar  
    24    13    23 ar  
    25    14    15 ar  
    26    14    37 1   
    27    15    16 ar  
    28    15    21 ar  
    29    16    17 ar  
    30    16    38 1   
    31    17    18 ar  
    32    17    39 1   
    33    18    19 1   
    34    18    20 ar  
    35    20    21 ar  
    36    20    40 1   
    37    21    22 ar  
    38    22    23 ar  
    39    23    24 1   
    40    24    25 ar  
    41    24    29 ar  
    42    25    26 ar  
    43    25    41 1   
    44    26    27 ar  
    45    26    42 1   
    46    27    28 ar  
    47    27    43 1   
    48    28    29 ar  
    49    28    44 1   
@<TRIPOS>SUBSTRUCTURE
     1 3VC         1 TEMP              0 ****  ****    0 ROOT
