@<TRIPOS>MOLECULE
3VC
   45    49     1     0     0
SMALL
No Charge or Current Charge


@<TRIPOS>ATOM
      1 C19          3.5780    -1.3110    -0.1590 ca         1 3VC      -0.105600
      2 N5           3.9980    -2.1490    -1.1890 nc         1 3VC      -0.555100
      3 C21          4.9010    -2.9300    -0.5680 cd         1 3VC       0.398700
      4 N6           5.0620    -2.6230     0.7900 na         1 3VC      -0.412300
      5 C20          4.2060    -1.5860     1.0270 ca         1 3VC       0.124500
      6 N4           3.9480    -0.8990     2.1550 nb         1 3VC      -0.219000
      7 C17          3.0250     0.0860     2.0450 ca         1 3VC       0.181900
      8 N3           2.3490     0.4390     0.9270 nb         1 3VC      -0.279000
      9 C18          2.6280    -0.2670    -0.1860 ca         1 3VC       0.442900
     10 N7           1.9540     0.0490    -1.3600 nu         1 3VC      -0.919100
     11 C10          0.7730     0.9130    -1.5110 c3         1 3VC       0.289800
     12 C11          0.4600     1.0740    -3.0090 c3         1 3VC      -0.104100
     13 C1          -0.4410     0.3500    -0.7560 ca         1 3VC      -0.107300
     14 C5          -0.6860    -1.0400    -0.7940 ca         1 3VC      -0.060000
     15 C4          -1.8270    -1.5590    -0.1620 ca         1 3VC      -0.091000
     16 C9          -2.0790    -2.9450    -0.1830 ca         1 3VC      -0.063000
     17 C8          -3.2280    -3.4540     0.4440 ca         1 3VC      -0.145000
     18 C7          -4.1150    -2.5780     1.0850 ca         1 3VC       0.177000
     19 F1          -5.2210    -3.0670     1.6880 f          1 3VC      -0.176000
     20 C6          -3.8650    -1.1990     1.1030 ca         1 3VC      -0.130000
     21 C3          -2.7200    -0.6730     0.4820 ca         1 3VC       0.294000
     22 N1          -2.4980     0.6570     0.5070 nb         1 3VC      -0.671000
     23 C2          -1.3850     1.1820    -0.0750 cp         1 3VC       0.338000
     24 C12         -1.2720     2.6940     0.0070 cp         1 3VC       0.284000
     25 C13         -2.3630     3.5160    -0.3820 ca         1 3VC      -0.121000
     26 C14         -2.2720     4.9130    -0.2670 ca         1 3VC      -0.082000
     27 C15         -1.0870     5.4560     0.2530 ca         1 3VC      -0.156000
     28 C16         -0.0510     4.5900     0.6380 ca         1 3VC       0.335900
     29 N2          -0.1400     3.2450     0.5240 nb         1 3VC      -0.661000
     30 H2           5.4690    -3.7290    -1.0320 h5         1 3VC       0.065800
     31 H4           2.8050     0.6510     2.9490 h5         1 3VC       0.049100
     32 H5           2.2280    -0.5300    -2.1530 hn         1 3VC       0.511000
     33 H6           1.0300     1.9100    -1.1320 h1         1 3VC       0.119700
     34 H7           1.3180     1.5020    -3.5410 hc         1 3VC       0.046367
     35 H8           0.2120     0.1080    -3.4660 hc         1 3VC       0.046367
     36 H9          -0.3940     1.7470    -3.1480 hc         1 3VC       0.046367
     37 H10         -0.0060    -1.7100    -1.3140 ha         1 3VC       0.125000
     38 H11         -1.3910    -3.6240    -0.6820 ha         1 3VC       0.122000
     39 H12         -3.4300    -4.5220     0.4340 ha         1 3VC       0.134000
     40 H13         -4.5620    -0.5330     1.6010 ha         1 3VC       0.148000
     41 H14         -3.2690     3.0600    -0.7730 ha         1 3VC       0.139000
     42 H15         -3.0970     5.5540    -0.5680 ha         1 3VC       0.121000
     43 H16         -0.9680     6.5300     0.3640 ha         1 3VC       0.125000
     44 H17          0.8780     4.9830     1.0510 h4         1 3VC       0.022100
     45 H161         5.6840    -3.0800     1.4440 hn         1 3VC       0.370000
@<TRIPOS>BOND
     1     1     2 1   
     2     1     5 ar  
     3     1     9 ar  
     4     2     3 2   
     5     3     4 1   
     6     3    30 1   
     7     4     5 1   
     8     4    45 1   
     9     5     6 ar  
    10     6     7 ar  
    11     7     8 ar  
    12     7    31 1   
    13     8     9 ar  
    14     9    10 1   
    15    10    11 1   
    16    10    32 1   
    17    11    12 1   
    18    11    13 1   
    19    11    33 1   
    20    12    34 1   
    21    12    35 1   
    22    12    36 1   
    23    13    14 ar  
    24    13    23 ar  
    25    14    15 ar  
    26    14    37 1   
    27    15    16 ar  
    28    15    21 ar  
    29    16    17 ar  
    30    16    38 1   
    31    17    18 ar  
    32    17    39 1   
    33    18    19 1   
    34    18    20 ar  
    35    20    21 ar  
    36    20    40 1   
    37    21    22 ar  
    38    22    23 ar  
    39    23    24 1   
    40    24    25 ar  
    41    24    29 ar  
    42    25    26 ar  
    43    25    41 1   
    44    26    27 ar  
    45    26    42 1   
    46    27    28 ar  
    47    27    43 1   
    48    28    29 ar  
    49    28    44 1   
@<TRIPOS>SUBSTRUCTURE
     1 3VC         1 TEMP              0 ****  ****    0 ROOT
