@<TRIPOS>MOLECULE
3VD
   46    50     1     0     0
SMALL
abcg2


@<TRIPOS>ATOM
      1 C18         21.9950    13.4760    23.3000 ca         1 3VD      -0.098600
      2 N21         23.2650    12.9370    23.4040 nc         1 3VD      -0.556100
      3 C22         23.0690    11.7220    23.8600 cd         1 3VD       0.403700
      4 N23         21.7450    11.4340    24.0600 na         1 3VD      -0.418300
      5 C19         21.0330    12.5500    23.7060 ca         1 3VD       0.128500
      6 N20         19.7080    12.7480    23.7290 nb         1 3VD      -0.214000
      7 C15         19.3800    13.9650    23.3060 ca         1 3VD       0.179900
      8 N16         20.1920    14.9440    22.8850 nb         1 3VD      -0.295000
      9 C17         21.5210    14.7320    22.8740 ca         1 3VD       0.443900
     10 N13         22.3470    15.7140    22.4680 nu         1 3VD      -0.918100
     11 C12         21.8710    16.9770    21.9240 c3         1 3VD       0.289800
     12 C30         23.0270    17.9750    21.8740 c3         1 3VD      -0.103100
     13 C7          21.2490    16.8110    20.5440 ca         1 3VD      -0.123300
     14 C6          21.8000    15.9370    19.6440 ca         1 3VD      -0.061000
     15 C5          21.3140    15.8420    18.3240 ca         1 3VD      -0.074000
     16 C11         21.8580    14.9540    17.3690 ca         1 3VD      -0.089000
     17 C10         21.3540    14.9230    16.0950 ca         1 3VD      -0.100000
     18 C9          20.2900    15.7720    15.7240 ca         1 3VD      -0.098000
     19 C8          19.7480    16.6370    16.6390 ca         1 3VD       0.147000
     20 CL1         18.4260    17.6710    16.1570 cl         1 3VD      -0.180000
     21 C4          20.2390    16.7070    17.9710 ca         1 3VD       0.280000
     22 N3          19.6900    17.5610    18.8640 nb         1 3VD      -0.645000
     23 C2          20.1540    17.6100    20.0980 cp         1 3VD       0.434500
     24 C1          19.4530    18.5700    20.9970 cp         1 3VD      -0.128500
     25 C24         18.8820    18.1350    22.1950 ca         1 3VD      -0.131000
     26 C25         18.2090    19.0540    22.9760 ca         1 3VD       0.157000
     27 F1          17.6520    18.6240    24.1390 f          1 3VD      -0.184000
     28 C26         18.0770    20.3860    22.6310 ca         1 3VD      -0.138000
     29 C27         18.6470    20.8070    21.4330 ca         1 3VD      -0.094000
     30 C28         19.3250    19.9070    20.6190 ca         1 3VD      -0.092000
     31 H2          23.8400    10.9970    24.0670 h5         1 3VD       0.068800
     32 H4          18.3210    14.2010    23.2950 h5         1 3VD       0.051100
     33 H5          23.3280    15.4950    22.3980 hn         1 3VD       0.512000
     34 H6          21.1210    17.3590    22.6080 h1         1 3VD       0.091700
     35 H7          23.4290    18.1390    22.8750 hc         1 3VD       0.050033
     36 H8          23.8260    17.6060    21.2270 hc         1 3VD       0.050033
     37 H9          22.6780    18.9280    21.4760 hc         1 3VD       0.050033
     38 H10         22.6280    15.3030    19.9380 ha         1 3VD       0.121000
     39 H11         22.6750    14.3070    17.6600 ha         1 3VD       0.120000
     40 H12         21.7660    14.2480    15.3570 ha         1 3VD       0.121000
     41 H13         19.8980    15.7400    14.7170 ha         1 3VD       0.132000
     42 H14         18.9580    17.1020    22.5100 ha         1 3VD       0.160000
     43 H15         17.5440    21.0680    23.2790 ha         1 3VD       0.132000
     44 H16         18.5600    21.8440    21.1360 ha         1 3VD       0.119000
     45 H17         19.7620    20.2380    19.6860 ha         1 3VD       0.128000
     46 H1          21.3670    10.5620    24.4020 hn         1 3VD       0.371000
@<TRIPOS>BOND
     1     1     2 1   
     2     1     5 ar  
     3     1     9 ar  
     4     2     3 2   
     5     3     4 1   
     6     3    31 1   
     7     4     5 1   
     8     4    46 1   
     9     5     6 ar  
    10     6     7 ar  
    11     7     8 ar  
    12     7    32 1   
    13     8     9 ar  
    14     9    10 1   
    15    10    11 1   
    16    10    33 1   
    17    11    12 1   
    18    11    13 1   
    19    11    34 1   
    20    12    35 1   
    21    12    36 1   
    22    12    37 1   
    23    13    14 ar  
    24    13    23 ar  
    25    14    15 ar  
    26    14    38 1   
    27    15    16 ar  
    28    15    21 ar  
    29    16    17 ar  
    30    16    39 1   
    31    17    18 ar  
    32    17    40 1   
    33    18    19 ar  
    34    18    41 1   
    35    19    20 1   
    36    19    21 ar  
    37    21    22 ar  
    38    22    23 ar  
    39    23    24 1   
    40    24    25 ar  
    41    24    30 ar  
    42    25    26 ar  
    43    25    42 1   
    44    26    27 1   
    45    26    28 ar  
    46    28    29 ar  
    47    28    43 1   
    48    29    30 ar  
    49    29    44 1   
    50    30    45 1   
@<TRIPOS>SUBSTRUCTURE
     1 3VD         1 TEMP              0 ****  ****    0 ROOT
