@<TRIPOS>MOLECULE
3VD
   46    50     1     0     0
SMALL
No Charge or Current Charge


@<TRIPOS>ATOM
      1 C18         21.9670    13.4470    23.2260 ca         1 3VD      -0.098600
      2 N21         23.3040    13.0640    23.2880 nc         1 3VD      -0.556100
      3 C22         23.2110    11.7640    23.6250 cd         1 3VD       0.403700
      4 N23         21.8900    11.3210    23.7740 na         1 3VD      -0.418300
      5 C19         21.1130    12.4140    23.5140 ca         1 3VD       0.128500
      6 N20         19.7760    12.5620    23.5090 nb         1 3VD      -0.214000
      7 C15         19.3230    13.8000    23.2000 ca         1 3VD       0.179900
      8 N16         20.0750    14.8850    22.9020 nb         1 3VD      -0.295000
      9 C17         21.4100    14.7060    22.9150 ca         1 3VD       0.443900
     10 N13         22.2270    15.7870    22.6060 nu         1 3VD      -0.918100
     11 C12         21.8350    17.0670    22.0020 c3         1 3VD       0.289800
     12 C30         23.0590    17.9960    21.9470 c3         1 3VD      -0.103100
     13 C7          21.2340    16.8660    20.6080 ca         1 3VD      -0.123300
     14 C6          21.8280    15.9590    19.7060 ca         1 3VD      -0.061000
     15 C5          21.2920    15.8240    18.4150 ca         1 3VD      -0.074000
     16 C11         21.8740    14.9150    17.5100 ca         1 3VD      -0.089000
     17 C10         21.3510    14.7760    16.2160 ca         1 3VD      -0.100000
     18 C9          20.2470    15.5490    15.8230 ca         1 3VD      -0.098000
     19 C8          19.6640    16.4600    16.7220 ca         1 3VD       0.147000
     20 Cl1         18.2760    17.4070    16.1680 cl         1 3VD      -0.180000
     21 C4          20.1770    16.6140    18.0360 ca         1 3VD       0.280000
     22 N3          19.6210    17.4930    18.9070 nb         1 3VD      -0.645000
     23 C2          20.1140    17.6160    20.1590 cp         1 3VD       0.434500
     24 C1          19.4240    18.6380    21.0050 cp         1 3VD      -0.128500
     25 C24         18.6810    18.2650    22.1550 ca         1 3VD      -0.131000
     26 C25         18.0350    19.2340    22.9380 ca         1 3VD       0.157000
     27 F1          17.3360    18.8570    24.0310 f          1 3VD      -0.184000
     28 C26         18.1080    20.5920    22.5920 ca         1 3VD      -0.138000
     29 C27         18.8270    20.9820    21.4490 ca         1 3VD      -0.094000
     30 C28         19.4750    20.0130    20.6620 ca         1 3VD      -0.092000
     31 H2          24.0480    11.0900    23.7750 h5         1 3VD       0.068800
     32 H4          18.2430    13.9370    23.1920 h5         1 3VD       0.051100
     33 H5          23.2210    15.5630    22.6410 hn         1 3VD       0.512000
     34 H6          21.0970    17.5460    22.6590 h1         1 3VD       0.091700
     35 H7          23.4660    18.1600    22.9520 hc         1 3VD       0.050033
     36 H8          23.8480    17.5720    21.3150 hc         1 3VD       0.050033
     37 H9          22.7760    18.9710    21.5330 hc         1 3VD       0.050033
     38 H10         22.6950    15.3720    20.0010 ha         1 3VD       0.121000
     39 H11         22.7300    14.3140    17.8090 ha         1 3VD       0.120000
     40 H12         21.8000    14.0730    15.5180 ha         1 3VD       0.121000
     41 H13         19.8400    15.4440    14.8200 ha         1 3VD       0.132000
     42 H14         18.6000    17.2190    22.4370 ha         1 3VD       0.160000
     43 H15         17.6040    21.3360    23.2040 ha         1 3VD       0.132000
     44 H16         18.8820    22.0330    21.1730 ha         1 3VD       0.119000
     45 H17         20.0280    20.3260    19.7790 ha         1 3VD       0.128000
     46 H1          21.5880    10.3890    24.0220 hn         1 3VD       0.371000
@<TRIPOS>BOND
     1     1     2 1   
     2     1     5 ar  
     3     1     9 ar  
     4     2     3 2   
     5     3     4 1   
     6     3    31 1   
     7     4     5 1   
     8     4    46 1   
     9     5     6 ar  
    10     6     7 ar  
    11     7     8 ar  
    12     7    32 1   
    13     8     9 ar  
    14     9    10 1   
    15    10    11 1   
    16    10    33 1   
    17    11    12 1   
    18    11    13 1   
    19    11    34 1   
    20    12    35 1   
    21    12    36 1   
    22    12    37 1   
    23    13    14 ar  
    24    13    23 ar  
    25    14    15 ar  
    26    14    38 1   
    27    15    16 ar  
    28    15    21 ar  
    29    16    17 ar  
    30    16    39 1   
    31    17    18 ar  
    32    17    40 1   
    33    18    19 ar  
    34    18    41 1   
    35    19    20 1   
    36    19    21 ar  
    37    21    22 ar  
    38    22    23 ar  
    39    23    24 1   
    40    24    25 ar  
    41    24    30 ar  
    42    25    26 ar  
    43    25    42 1   
    44    26    27 1   
    45    26    28 ar  
    46    28    29 ar  
    47    28    43 1   
    48    29    30 ar  
    49    29    44 1   
    50    30    45 1   
@<TRIPOS>SUBSTRUCTURE
     1 3VD         1 TEMP              0 ****  ****    0 ROOT
