@<TRIPOS>MOLECULE
3VE
   48    52     1     0     0
SMALL
abcg2


@<TRIPOS>ATOM
      1 C30         17.1570    17.1060    21.3690 c3         1 3VE      -0.161400
      2 C29         17.8680    18.4260    21.4220 ca         1 3VE       0.396300
      3 N28         17.3410    19.3800    22.1980 nb         1 3VE      -0.678000
      4 C27         17.9390    20.5750    22.2560 ca         1 3VE       0.349900
      5 C26         19.0850    20.8860    21.5420 ca         1 3VE      -0.177000
      6 C25         19.6400    19.8990    20.7390 ca         1 3VE      -0.055000
      7 C11         19.0380    18.6490    20.6760 cp         1 3VE      -0.204500
      8 C2          19.5960    17.5810    19.7940 cp         1 3VE       0.438500
      9 N3          19.0110    17.4530    18.6200 nb         1 3VE      -0.641000
     10 C6          19.4570    16.5170    17.7500 ca         1 3VE       0.278000
     11 C7          18.8350    16.3530    16.4830 ca         1 3VE       0.146000
     12 CL1         17.4710    17.3570    16.0620 cl         1 3VE      -0.179000
     13 C8          19.2830    15.4190    15.5850 ca         1 3VE      -0.098000
     14 C9          20.3780    14.5910    15.9110 ca         1 3VE      -0.100000
     15 C10         21.0010    14.7070    17.1250 ca         1 3VE      -0.090000
     16 C5          20.5540    15.6650    18.0640 ca         1 3VE      -0.074000
     17 C4          21.1440    15.8200    19.3340 ca         1 3VE      -0.059000
     18 C1          20.6820    16.7620    20.2160 ca         1 3VE      -0.125300
     19 C13         21.3120    16.9260    21.5910 c3         1 3VE       0.295800
     20 C15         22.4970    17.8910    21.5590 c3         1 3VE      -0.104100
     21 N14         21.7740    15.6580    22.1370 nu         1 3VE      -0.920100
     22 C16         20.9590    14.6620    22.5270 ca         1 3VE       0.444900
     23 C21         21.4530    13.4140    22.9580 ca         1 3VE      -0.099600
     24 N22         22.7330    12.9040    23.0840 nc         1 3VE      -0.557100
     25 C23         22.5560    11.6820    23.5300 cd         1 3VE       0.403700
     26 N24         21.2350    11.3630    23.7040 na         1 3VE      -0.419300
     27 C20         20.5050    12.4660    23.3420 ca         1 3VE       0.127500
     28 N17         19.1750    12.6330    23.3380 nb         1 3VE      -0.214000
     29 C18         18.8290    13.8450    22.9140 ca         1 3VE       0.178900
     30 N19         19.6270    14.8440    22.5160 nb         1 3VE      -0.290000
     31 H1          16.3550    17.0870    22.1050 hc         1 3VE       0.063367
     32 H2          16.7290    16.9400    20.3770 hc         1 3VE       0.063367
     33 H3          17.8500    16.2860    21.5670 hc         1 3VE       0.063367
     34 H4          17.4740    21.3140    22.8990 h4         1 3VE       0.019100
     35 H5          19.5290    21.8700    21.6110 ha         1 3VE       0.124000
     36 H6          20.5300    20.1000    20.1560 ha         1 3VE       0.118000
     37 H7          18.7930    15.3170    14.6270 ha         1 3VE       0.132000
     38 H8          20.7140    13.8610    15.1870 ha         1 3VE       0.121000
     39 H9          21.8380    14.0700    17.3840 ha         1 3VE       0.120000
     40 H10         21.9600    15.1640    19.6120 ha         1 3VE       0.122000
     41 H11         20.5520    17.3210    22.2650 h1         1 3VE       0.091700
     42 H12         22.8930    18.0340    22.5660 hc         1 3VE       0.049033
     43 H13         23.2890    17.4930    20.9200 hc         1 3VE       0.049033
     44 H14         22.1960    18.8580    21.1630 hc         1 3VE       0.049033
     45 H15         22.7610    15.4540    22.0990 hn         1 3VE       0.512000
     46 H17         23.3400    10.9730    23.7490 h5         1 3VE       0.068800
     47 H18         20.8710    10.4820    24.0340 hn         1 3VE       0.371000
     48 H19         17.7660    14.0570    22.8820 h5         1 3VE       0.050100
@<TRIPOS>BOND
     1     1     2 1   
     2     1    31 1   
     3     1    32 1   
     4     1    33 1   
     5     2     3 ar  
     6     2     7 ar  
     7     3     4 ar  
     8     4     5 ar  
     9     4    34 1   
    10     5     6 ar  
    11     5    35 1   
    12     6     7 ar  
    13     6    36 1   
    14     7     8 1   
    15     8     9 ar  
    16     8    18 ar  
    17     9    10 ar  
    18    10    11 ar  
    19    10    16 ar  
    20    11    12 1   
    21    11    13 ar  
    22    13    14 ar  
    23    13    37 1   
    24    14    15 ar  
    25    14    38 1   
    26    15    16 ar  
    27    15    39 1   
    28    16    17 ar  
    29    17    18 ar  
    30    17    40 1   
    31    18    19 1   
    32    19    20 1   
    33    19    21 1   
    34    19    41 1   
    35    20    42 1   
    36    20    43 1   
    37    20    44 1   
    38    21    22 1   
    39    21    45 1   
    40    22    23 ar  
    41    22    30 ar  
    42    23    24 1   
    43    23    27 ar  
    44    24    25 2   
    45    25    26 1   
    46    25    46 1   
    47    26    27 1   
    48    26    47 1   
    49    27    28 ar  
    50    28    29 ar  
    51    29    30 ar  
    52    29    48 1   
@<TRIPOS>SUBSTRUCTURE
     1 3VE         1 TEMP              0 ****  ****    0 ROOT
