@<TRIPOS>MOLECULE
3VE
   48    52     1     0     0
SMALL
No Charge or Current Charge


@<TRIPOS>ATOM
      1 C30         16.9850    16.7880    21.1260 c3         1 3VE      -0.161400
      2 C29         17.7230    18.0950    21.3730 ca         1 3VE       0.396300
      3 N28         17.0850    18.9400    22.2170 nb         1 3VE      -0.678000
      4 C27         17.6660    20.1260    22.5020 ca         1 3VE       0.349900
      5 C26         18.8980    20.5200    21.9600 ca         1 3VE      -0.177000
      6 C25         19.5640    19.6530    21.0840 ca         1 3VE      -0.055000
      7 C11         18.9760    18.4020    20.7780 cp         1 3VE      -0.204500
      8 C2          19.6510    17.4550    19.8500 cp         1 3VE       0.438500
      9 N3          18.9870    17.2230    18.6970 nb         1 3VE      -0.641000
     10 C6          19.5030    16.3820    17.7680 ca         1 3VE       0.278000
     11 C7          18.8140    16.1190    16.5560 ca         1 3VE       0.146000
     12 Cl1         17.2530    16.8770    16.2130 cl         1 3VE      -0.179000
     13 C8          19.3540    15.2450    15.5950 ca         1 3VE      -0.098000
     14 C9          20.5890    14.6190    15.8240 ca         1 3VE      -0.100000
     15 C10         21.2850    14.8650    17.0170 ca         1 3VE      -0.090000
     16 C5          20.7490    15.7390    17.9820 ca         1 3VE      -0.074000
     17 C4          21.4530    15.9780    19.1740 ca         1 3VE      -0.059000
     18 C1          20.9040    16.8500    20.1350 ca         1 3VE      -0.125300
     19 C13         21.6520    17.1010    21.4460 c3         1 3VE       0.295800
     20 C15         22.9930    17.8220    21.2160 c3         1 3VE      -0.104100
     21 N14         21.8960    15.8330    22.1380 nu         1 3VE      -0.920100
     22 C16         20.9410    15.0020    22.7100 ca         1 3VE       0.444900
     23 C21         21.2150    13.6370    22.9400 ca         1 3VE      -0.099600
     24 N22         22.3750    12.9120    22.6780 nc         1 3VE      -0.557100
     25 C23         22.0400    11.6800    23.1020 cd         1 3VE       0.403700
     26 N24         20.7370    11.6020    23.6130 na         1 3VE      -0.419300
     27 C20         20.2300    12.8640    23.4980 ca         1 3VE       0.127500
     28 N17         19.0250    13.3620    23.8300 nb         1 3VE      -0.214000
     29 C18         18.8430    14.6800    23.5770 ca         1 3VE       0.178900
     30 N19         19.7440    15.5300    23.0300 nb         1 3VE      -0.290000
     31 H1          16.2950    16.5500    21.9440 hc         1 3VE       0.063367
     32 H2          16.4010    16.8460    20.2010 hc         1 3VE       0.063367
     33 H3          17.6790    15.9460    21.0320 hc         1 3VE       0.063367
     34 H4          17.1260    20.7800    23.1850 h4         1 3VE       0.019100
     35 H5          19.3210    21.4870    22.2170 ha         1 3VE       0.124000
     36 H6          20.5150    19.9440    20.6430 ha         1 3VE       0.118000
     37 H7          18.8120    15.0550    14.6720 ha         1 3VE       0.132000
     38 H8          21.0040    13.9430    15.0790 ha         1 3VE       0.121000
     39 H9          22.2420    14.3750    17.1900 ha         1 3VE       0.120000
     40 H10         22.4060    15.4860    19.3540 ha         1 3VE       0.122000
     41 H11         21.0520    17.7460    22.1030 h1         1 3VE       0.091700
     42 H12         23.4870    18.0290    22.1720 hc         1 3VE       0.049033
     43 H13         23.6720    17.2190    20.6010 hc         1 3VE       0.049033
     44 H14         22.8290    18.7780    20.7050 hc         1 3VE       0.049033
     45 H15         22.7670    15.3440    21.9290 hn         1 3VE       0.512000
     46 H17         22.6820    10.8060    23.0710 h5         1 3VE       0.068800
     47 H18         20.2810    10.7790    23.9850 hn         1 3VE       0.371000
     48 H19         17.8730    15.0990    23.8390 h5         1 3VE       0.050100
@<TRIPOS>BOND
     1     1     2 1   
     2     1    31 1   
     3     1    32 1   
     4     1    33 1   
     5     2     3 ar  
     6     2     7 ar  
     7     3     4 ar  
     8     4     5 ar  
     9     4    34 1   
    10     5     6 ar  
    11     5    35 1   
    12     6     7 ar  
    13     6    36 1   
    14     7     8 1   
    15     8     9 ar  
    16     8    18 ar  
    17     9    10 ar  
    18    10    11 ar  
    19    10    16 ar  
    20    11    12 1   
    21    11    13 ar  
    22    13    14 ar  
    23    13    37 1   
    24    14    15 ar  
    25    14    38 1   
    26    15    16 ar  
    27    15    39 1   
    28    16    17 ar  
    29    17    18 ar  
    30    17    40 1   
    31    18    19 1   
    32    19    20 1   
    33    19    21 1   
    34    19    41 1   
    35    20    42 1   
    36    20    43 1   
    37    20    44 1   
    38    21    22 1   
    39    21    45 1   
    40    22    23 ar  
    41    22    30 ar  
    42    23    24 1   
    43    23    27 ar  
    44    24    25 2   
    45    25    26 1   
    46    25    46 1   
    47    26    27 1   
    48    26    47 1   
    49    27    28 ar  
    50    28    29 ar  
    51    29    30 ar  
    52    29    48 1   
@<TRIPOS>SUBSTRUCTURE
     1 3VE         1 TEMP              0 ****  ****    0 ROOT
