@<TRIPOS>MOLECULE
3VF
   53    55     1     0     0
SMALL
abcg2


@<TRIPOS>ATOM
      1 C1          -6.4460    -2.6540    17.4410 ca         1 3VF       0.109300
      2 C2          -6.3160    -4.0220    17.2260 ca         1 3VF      -0.186000
      3 C3          -5.0850    -4.6000    17.4920 ca         1 3VF       0.108900
      4 C11        -11.6680    -4.9120    13.0150 ca         1 3VF       0.191100
      5 C12        -10.3390    -4.9120    12.5570 ca         1 3VF      -0.200600
      6 C13         -9.3790    -4.2080    13.2630 ca         1 3VF       0.006000
      7 C14         -9.6930    -3.5310    14.4420 ca         1 3VF      -0.193600
      8 C15        -11.0090    -3.5600    14.8990 ca         1 3VF      -0.032000
      9 C16        -11.9940    -4.2350    14.1910 ca         1 3VF      -0.209000
     10 C18         -9.3200    -7.0520    11.4700 c3         1 3VF      -0.089700
     11 C20         -8.0870    -6.8750    12.3620 ca         1 3VF      -0.054300
     12 C22         -8.5860    -2.8170    15.1360 c          1 3VF       0.610700
     13 C23         -8.0640    -7.3150    13.6840 ca         1 3VF      -0.100000
     14 C24         -6.9580    -7.0510    14.4800 ca         1 3VF       0.129500
     15 C25         -5.8570    -6.3560    14.0080 ca         1 3VF      -0.094000
     16 C26         -5.8940    -5.9330    12.6860 ca         1 3VF       0.129500
     17 C27         -6.9800    -6.1830    11.8630 ca         1 3VF      -0.100000
     18 C30        -13.9000    -5.7290    12.7240 c3         1 3VF       0.147900
     19 N4          -4.0460    -3.8890    17.9410 nb         1 3VF      -0.139000
     20 C5          -4.2820    -2.5920    18.1130 ca         1 3VF       0.227000
     21 N6          -5.4130    -1.9320    17.8900 nb         1 3VF      -0.149000
     22 C7          -7.7260    -1.8870    17.2160 c3         1 3VF       0.051700
     23 N8          -8.7310    -2.5980    16.4640 ns         1 3VF      -0.511900
     24 C9          -3.1710    -1.8000    18.5980 cg         1 3VF       0.236000
     25 N10         -2.2900    -1.1660    18.9790 n1         1 3VF      -0.415000
     26 O19        -10.2100    -5.1900    10.2120 o          1 3VF      -0.485100
     27 O21        -12.5530    -5.5980    12.2610 os         1 3VF      -0.343100
     28 CL1         -6.9630    -7.6030    16.1400 cl         1 3VF      -0.198000
     29 CL2         -4.5320    -5.0390    12.0510 cl         1 3VF      -0.198000
     30 C31        -10.3760    -7.9760    12.1040 c3         1 3VF      -0.079600
     31 C32         -8.9290    -7.6210    10.1010 c3         1 3VF      -0.079600
     32 O33         -7.5720    -2.4540    14.5370 o          1 3VF      -0.588100
     33 H1          -7.1410    -4.6160    16.8610 ha         1 3VF       0.143000
     34 H2          -4.9230    -5.6590    17.3400 h4         1 3VF       0.036100
     35 H3          -8.3590    -4.1800    12.9120 ha         1 3VF       0.146000
     36 H4         -11.2960    -3.0330    15.8000 ha         1 3VF       0.113000
     37 H5         -13.0100    -4.2260    14.5560 ha         1 3VF       0.125000
     38 H6          -8.9010    -7.8430    14.1110 ha         1 3VF       0.138500
     39 H7          -5.0060    -6.1500    14.6390 ha         1 3VF       0.146000
     40 H8          -6.9720    -5.8090    10.8500 ha         1 3VF       0.138500
     41 H9         -14.4060    -6.3440    11.9860 h1         1 3VF       0.048033
     42 H10        -13.9270    -6.2200    13.6990 h1         1 3VF       0.048033
     43 H11        -14.3850    -4.7530    12.7880 h1         1 3VF       0.048033
     44 H12         -7.4720    -0.9520    16.7160 h1         1 3VF       0.083200
     45 H13         -8.1460    -1.6320    18.1910 h1         1 3VF       0.083200
     46 H14         -9.5090    -2.9990    16.9600 hn         1 3VF       0.320500
     47 H17        -10.7540    -7.5980    13.0530 hc         1 3VF       0.047200
     48 H18        -11.2200    -8.0830    11.4250 hc         1 3VF       0.047200
     49 H19         -9.9410    -8.9630    12.2720 hc         1 3VF       0.047200
     50 H20         -9.8180    -7.7510     9.4850 hc         1 3VF       0.047200
     51 H21         -8.2430    -6.9700     9.5650 hc         1 3VF       0.047200
     52 H22         -8.4540    -8.5930    10.2370 hc         1 3VF       0.047200
     53 C17         -9.9750    -5.6630    11.3020 c          1 3VF       0.598700
@<TRIPOS>BOND
     1     1     2 ar  
     2     1    21 ar  
     3     1    22 1   
     4     2     3 ar  
     5     2    33 1   
     6     3    19 ar  
     7     3    34 1   
     8     4     5 ar  
     9     4     9 ar  
    10     4    27 1   
    11     5     6 ar  
    12     5    53 1   
    13     6     7 ar  
    14     6    35 1   
    15     7     8 ar  
    16     7    12 1   
    17     8     9 ar  
    18     8    36 1   
    19     9    37 1   
    20    10    11 1   
    21    10    30 1   
    22    10    31 1   
    23    10    53 1   
    24    11    13 ar  
    25    11    17 ar  
    26    12    23 1   
    27    12    32 2   
    28    13    14 ar  
    29    13    38 1   
    30    14    15 ar  
    31    14    28 1   
    32    15    16 ar  
    33    15    39 1   
    34    16    17 ar  
    35    16    29 1   
    36    17    40 1   
    37    18    27 1   
    38    18    41 1   
    39    18    42 1   
    40    18    43 1   
    41    19    20 ar  
    42    20    21 ar  
    43    20    24 1   
    44    22    23 1   
    45    22    44 1   
    46    22    45 1   
    47    23    46 1   
    48    24    25 3   
    49    26    53 2   
    50    30    47 1   
    51    30    48 1   
    52    30    49 1   
    53    31    50 1   
    54    31    51 1   
    55    31    52 1   
@<TRIPOS>SUBSTRUCTURE
     1 3VF         1 TEMP              0 ****  ****    0 ROOT
