@<TRIPOS>MOLECULE
3VF
   53    55     1     0     0
SMALL
No Charge or Current Charge


@<TRIPOS>ATOM
      1 C1          -6.8310    -2.7870    17.8440 ca         1 3VF       0.109300
      2 C2          -7.1080    -3.5550    18.9910 ca         1 3VF      -0.186000
      3 C3          -6.1570    -4.5120    19.3820 ca         1 3VF       0.108900
      4 C11        -11.6160    -5.0200    13.0520 ca         1 3VF       0.191100
      5 C12        -10.3340    -4.8560    12.5060 ca         1 3VF      -0.200600
      6 C13         -9.3850    -4.0540    13.1670 ca         1 3VF       0.006000
      7 C14         -9.6780    -3.4560    14.4080 ca         1 3VF      -0.193600
      8 C15        -10.9670    -3.6330    14.9580 ca         1 3VF      -0.032000
      9 C16        -11.9310    -4.3990    14.2790 ca         1 3VF      -0.209000
     10 C18         -9.1060    -6.8770    11.3780 c3         1 3VF      -0.089700
     11 C20         -7.7780    -6.5130    12.0960 ca         1 3VF      -0.054300
     12 C22         -8.5910    -2.6820    15.1120 c          1 3VF       0.610700
     13 C23         -7.5260    -6.8500    13.4510 ca         1 3VF      -0.100000
     14 C24         -6.3450    -6.4380    14.0910 ca         1 3VF       0.129500
     15 C25         -5.3860    -5.6900    13.3980 ca         1 3VF      -0.094000
     16 C26         -5.6170    -5.3460    12.0610 ca         1 3VF       0.129500
     17 C27         -6.7990    -5.7460    11.4170 ca         1 3VF      -0.100000
     18 C30        -13.8500    -6.0590    12.8650 c3         1 3VF       0.147900
     19 N4          -5.0180    -4.6990    18.6840 nb         1 3VF      -0.139000
     20 C5          -4.8400    -3.9180    17.5950 ca         1 3VF       0.227000
     21 N6          -5.6910    -2.9700    17.1440 nb         1 3VF      -0.149000
     22 C7          -7.8160    -1.7500    17.3200 c3         1 3VF       0.051700
     23 N8          -8.8210    -2.3520    16.4300 ns         1 3VF      -0.511900
     24 C9          -3.6370    -4.1240    16.8360 cg         1 3VF       0.236000
     25 N10         -2.6650    -4.2960    16.2090 n1         1 3VF      -0.415000
     26 O19        -10.2760    -5.1020    10.1570 o          1 3VF      -0.485100
     27 O21        -12.5220    -5.8090    12.3720 os         1 3VF      -0.343100
     28 Cl1         -6.0780    -6.8500    15.7800 cl         1 3VF      -0.198000
     29 Cl2         -4.4290    -4.3860    11.1890 cl         1 3VF      -0.198000
     30 C31         -9.9470    -7.9290    12.1630 c3         1 3VF      -0.079600
     31 C32         -8.8030    -7.4960     9.9770 c3         1 3VF      -0.079600
     32 O33         -7.5500    -2.3720    14.5510 o          1 3VF      -0.588100
     33 H1          -8.0280    -3.4190    19.5540 ha         1 3VF       0.143000
     34 H2          -6.3080    -5.1400    20.2580 h4         1 3VF       0.036100
     35 H3          -8.3980    -3.9200    12.7270 ha         1 3VF       0.146000
     36 H4         -11.2420    -3.1780    15.9070 ha         1 3VF       0.113000
     37 H5         -12.9120    -4.5090    14.7300 ha         1 3VF       0.125000
     38 H6          -8.2410    -7.4160    14.0400 ha         1 3VF       0.138500
     39 H7          -4.4750    -5.3710    13.8960 ha         1 3VF       0.146000
     40 H8          -6.9540    -5.4290    10.3900 ha         1 3VF       0.138500
     41 H9         -14.3960    -6.7110    12.1720 h1         1 3VF       0.048033
     42 H10        -13.8150    -6.5570    13.8430 h1         1 3VF       0.048033
     43 H11        -14.4120    -5.1220    12.9650 h1         1 3VF       0.048033
     44 H12         -7.2750    -0.9610    16.7790 h1         1 3VF       0.083200
     45 H13         -8.3290    -1.2750    18.1670 h1         1 3VF       0.083200
     46 H14         -9.7010    -2.6530    16.8290 hn         1 3VF       0.320500
     47 H17        -10.2680    -7.5550    13.1420 hc         1 3VF       0.047200
     48 H18        -10.8570    -8.1910    11.6070 hc         1 3VF       0.047200
     49 H19         -9.3740    -8.8520    12.3180 hc         1 3VF       0.047200
     50 H20         -9.7270    -7.8270     9.4870 hc         1 3VF       0.047200
     51 H21         -8.3190    -6.7820     9.3010 hc         1 3VF       0.047200
     52 H22         -8.1450    -8.3680    10.0750 hc         1 3VF       0.047200
     53 C17         -9.9540    -5.5690    11.2440 c          1 3VF       0.598700
@<TRIPOS>BOND
     1     1     2 ar  
     2     1    21 ar  
     3     1    22 1   
     4     2     3 ar  
     5     2    33 1   
     6     3    19 ar  
     7     3    34 1   
     8     4     5 ar  
     9     4     9 ar  
    10     4    27 1   
    11     5     6 ar  
    12     5    53 1   
    13     6     7 ar  
    14     6    35 1   
    15     7     8 ar  
    16     7    12 1   
    17     8     9 ar  
    18     8    36 1   
    19     9    37 1   
    20    10    11 1   
    21    10    30 1   
    22    10    31 1   
    23    10    53 1   
    24    11    13 ar  
    25    11    17 ar  
    26    12    23 1   
    27    12    32 2   
    28    13    14 ar  
    29    13    38 1   
    30    14    15 ar  
    31    14    28 1   
    32    15    16 ar  
    33    15    39 1   
    34    16    17 ar  
    35    16    29 1   
    36    17    40 1   
    37    18    27 1   
    38    18    41 1   
    39    18    42 1   
    40    18    43 1   
    41    19    20 ar  
    42    20    21 ar  
    43    20    24 1   
    44    22    23 1   
    45    22    44 1   
    46    22    45 1   
    47    23    46 1   
    48    24    25 3   
    49    26    53 2   
    50    30    47 1   
    51    30    48 1   
    52    30    49 1   
    53    31    50 1   
    54    31    51 1   
    55    31    52 1   
@<TRIPOS>SUBSTRUCTURE
     1 3VF         1 TEMP              0 ****  ****    0 ROOT
