@<TRIPOS>MOLECULE
3VH
   85    91     1     0     0
SMALL
No Charge or Current Charge


@<TRIPOS>ATOM
      1 C32          5.7990    -1.4520    -2.3900 c          1 3VH       0.614100
      2 O5           4.8100    -1.0380    -2.9740 o          1 3VH      -0.587100
      3 C33          6.8760    -2.2650    -3.0970 c3         1 3VH      -0.181100
      4 C15          6.9950     2.3310    -0.0060 ca         1 3VH       0.118000
      5 C19          8.1440     3.0430    -0.3900 ca         1 3VH      -0.110000
      6 C18          8.4530     3.2100    -1.7500 ca         1 3VH      -0.109000
      7 C17          7.6070     2.6680    -2.7290 ca         1 3VH      -0.111000
      8 C16          6.4560     1.9570    -2.3500 ca         1 3VH      -0.091000
      9 C14          6.1390     1.7740    -0.9870 ca         1 3VH      -0.056300
     10 C13          4.8840     0.9870    -0.6040 c3         1 3VH      -0.039100
     11 C12          5.1930    -0.4570    -0.1070 c3         1 3VH       0.055700
     12 N4           6.0470    -1.2280    -1.0510 ns         1 3VH      -0.494900
     13 C11          3.9020    -1.2490     0.3040 c          1 3VH       0.595100
     14 O4           3.5090    -2.2150    -0.3420 o          1 3VH      -0.574100
     15 N5           3.1660    -0.8070     1.4350 n          1 3VH      -0.401800
     16 C30          3.7270     0.0690     2.4920 c5         1 3VH       0.107000
     17 C29          2.7750    -0.1950     3.6850 c5         1 3VH      -0.096400
     18 C34          1.4170    -0.4110     2.9720 c5         1 3VH      -0.077400
     19 C35          1.8120    -1.3320     1.7740 c5         1 3VH       0.075600
     20 C31          0.7300    -1.1990     0.6370 c          1 3VH       0.591000
     21 O3           0.8100    -0.4980    -0.3670 o          1 3VH      -0.553000
     22 N3          -0.3880    -2.0290     0.8870 n          1 3VH      -0.384800
     23 C26          1.9670    -2.7740     2.2650 c2         1 3VH      -0.200200
     24 C28          0.8660    -3.5410     2.3630 c2         1 3VH      -0.217200
     25 C27         -0.5010    -2.9480     2.0350 c5         1 3VH       0.144900
     26 C24         -1.4380    -4.0270     1.4410 c5         1 3VH      -0.086400
     27 C9          -2.4710    -3.1450     0.6920 c5         1 3VH      -0.089400
     28 C10         -1.5580    -2.0990    -0.0310 c5         1 3VH       0.032700
     29 C20         -2.3510    -0.7530    -0.2010 c          1 3VH       0.614100
     30 O6          -2.1710     0.2740     0.4470 o          1 3VH      -0.596100
     31 N2          -3.4120    -0.8620    -1.1340 n          1 3VH      -0.392800
     32 C22         -3.3900    -1.7650    -2.3090 c5         1 3VH       0.110000
     33 C23         -4.3400    -1.0380    -3.2960 c5         1 3VH      -0.090400
     34 C8          -5.3900    -0.4210    -2.3400 c5         1 3VH      -0.045500
     35 C21         -4.4680     0.1820    -1.2430 c5         1 3VH       0.023700
     36 C25         -5.3390     0.3950     0.0390 c          1 3VH       0.586000
     37 O7          -5.2360    -0.2150     1.1000 o          1 3VH      -0.559000
     38 C7          -6.2190     0.6200    -3.1030 c2         1 3VH      -0.195200
     39 C6          -6.6160     1.8170    -2.6120 c2         1 3VH      -0.211200
     40 C5          -6.2690     2.3790    -1.2320 c5         1 3VH       0.198100
     41 C4          -7.3150     3.3660    -0.7700 c2         1 3VH      -0.312200
     42 C3          -7.9120     2.9880     0.3600 c2         1 3VH      -0.148200
     43 C2          -7.3680     1.6710     0.8710 c5         1 3VH      -0.021100
     44 N1          -6.3710     1.3250    -0.1940 n          1 3VH      -0.376800
     45 C1          -8.4950     0.6060     1.1150 c          1 3VH       0.733000
     46 O2          -8.9790     0.5190     2.2360 o          1 3VH      -0.714500
     47 O1          -8.8900    -0.0940     0.1900 o          1 3VH      -0.714500
     48 H9           6.6530    -2.4290    -4.1580 hc         1 3VH       0.055367
     49 H10          7.8440    -1.7710    -2.9590 hc         1 3VH       0.055367
     50 H11          7.0190    -3.2110    -2.5620 hc         1 3VH       0.055367
     51 H3           7.8420     2.7990    -3.7830 ha         1 3VH       0.116000
     52 H4           5.8090     1.5450    -3.1220 ha         1 3VH       0.140000
     53 H7           5.7870    -0.3640     0.8090 h1         1 3VH       0.056700
     54 H8           6.9020    -1.6340    -0.6890 hn         1 3VH       0.308500
     55 H12          4.7650    -0.1820     2.7460 h1         1 3VH       0.047700
     56 H13          3.6820     1.1240     2.1940 h1         1 3VH       0.047700
     57 H14          3.0790    -1.0890     4.2420 hc         1 3VH       0.050700
     58 H15          2.7550     0.6390     4.3950 hc         1 3VH       0.050700
     59 H16          0.6630    -0.8540     3.6330 hc         1 3VH       0.076700
     60 H17          1.0100     0.5440     2.6180 hc         1 3VH       0.076700
     61 H18          2.9480    -3.1840     2.5100 ha         1 3VH       0.178000
     62 H19          0.9510    -4.5760     2.7010 ha         1 3VH       0.183000
     63 H20         -0.9580    -2.4460     2.9000 h1         1 3VH       0.073700
     64 H21         -0.9070    -4.6880     0.7450 hc         1 3VH       0.052700
     65 H22         -1.8960    -4.6570     2.2120 hc         1 3VH       0.052700
     66 H23         -3.0900    -3.7210    -0.0030 hc         1 3VH       0.073200
     67 H24         -3.1510    -2.6590     1.4040 hc         1 3VH       0.073200
     68 H25         -1.2270    -2.4620    -1.0110 h1         1 3VH       0.076700
     69 H26         -2.3860    -1.8790    -2.7390 h1         1 3VH       0.042700
     70 H27         -3.7770    -2.7570    -2.0440 h1         1 3VH       0.042700
     71 H28         -3.8010    -0.2610    -3.8520 hc         1 3VH       0.046200
     72 H29         -4.7790    -1.7220    -4.0310 hc         1 3VH       0.046200
     73 H30         -6.0390    -1.2060    -1.9300 hc         1 3VH       0.116700
     74 H31         -4.0140     1.1300    -1.5540 h1         1 3VH       0.067700
     75 H32         -6.5410     0.3650    -4.1150 ha         1 3VH       0.158000
     76 H33         -7.2190     2.4480    -3.2660 ha         1 3VH       0.161000
     77 H34         -5.2760     2.8500    -1.2270 h1         1 3VH       0.041700
     78 H35         -7.5590     4.2870    -1.3000 ha         1 3VH       0.168000
     79 H36         -8.6980     3.5620     0.8570 ha         1 3VH       0.188000
     80 H37         -6.8570     1.8180     1.8310 h1         1 3VH       0.075700
     81 H5           4.3290     1.5380     0.1600 hc         1 3VH       0.085700
     82 H1           8.7960     3.4670     0.3700 ha         1 3VH       0.123000
     83 Cl           6.6510     2.1670     1.7170 cl         1 3VH      -0.227000
     84 H6           4.1930     0.9350    -1.4530 hc         1 3VH       0.085700
     85 H2           9.3440     3.7620    -2.0430 ha         1 3VH       0.112000
@<TRIPOS>BOND
     1     1     2 2   
     2     1     3 1   
     3     1    12 1   
     4     3    48 1   
     5     3    49 1   
     6     3    50 1   
     7     4     5 ar  
     8     4     9 ar  
     9     4    83 1   
    10     5     6 ar  
    11     5    82 1   
    12     6     7 ar  
    13     6    85 1   
    14     7     8 ar  
    15     7    51 1   
    16     8     9 ar  
    17     8    52 1   
    18     9    10 1   
    19    10    11 1   
    20    10    81 1   
    21    10    84 1   
    22    11    12 1   
    23    11    13 1   
    24    11    53 1   
    25    12    54 1   
    26    13    14 2   
    27    13    15 1   
    28    15    16 1   
    29    15    19 1   
    30    16    17 1   
    31    16    55 1   
    32    16    56 1   
    33    17    18 1   
    34    17    57 1   
    35    17    58 1   
    36    18    19 1   
    37    18    59 1   
    38    18    60 1   
    39    19    20 1   
    40    19    23 1   
    41    20    21 2   
    42    20    22 1   
    43    22    25 1   
    44    22    28 1   
    45    23    24 2   
    46    23    61 1   
    47    24    25 1   
    48    24    62 1   
    49    25    26 1   
    50    25    63 1   
    51    26    27 1   
    52    26    64 1   
    53    26    65 1   
    54    27    28 1   
    55    27    66 1   
    56    27    67 1   
    57    28    29 1   
    58    28    68 1   
    59    29    30 2   
    60    29    31 1   
    61    31    32 1   
    62    31    35 1   
    63    32    33 1   
    64    32    69 1   
    65    32    70 1   
    66    33    34 1   
    67    33    71 1   
    68    33    72 1   
    69    34    35 1   
    70    34    38 1   
    71    34    73 1   
    72    35    36 1   
    73    35    74 1   
    74    36    37 2   
    75    36    44 1   
    76    38    39 2   
    77    38    75 1   
    78    39    40 1   
    79    39    76 1   
    80    40    41 1   
    81    40    44 1   
    82    40    77 1   
    83    41    42 2   
    84    41    78 1   
    85    42    43 1   
    86    42    79 1   
    87    43    44 1   
    88    43    45 1   
    89    43    80 1   
    90    45    46 1   
    91    45    47 1   
@<TRIPOS>SUBSTRUCTURE
     1 3VH         1 TEMP              0 ****  ****    0 ROOT
