@<TRIPOS>MOLECULE
3VH
   85    91     1     0     0
SMALL
abcg2


@<TRIPOS>ATOM
      1 C32          5.6150    -1.8140    -1.8900 c          1 3VH       0.614100
      2 O5           4.7100    -1.4820    -2.6400 o          1 3VH      -0.587100
      3 C33          6.6370    -2.8470    -2.3030 c3         1 3VH      -0.181100
      4 C15          6.7050     2.3370    -0.4620 ca         1 3VH       0.118000
      5 C19          7.8490     2.9560    -0.9440 ca         1 3VH      -0.110000
      6 C18          8.1760     2.8330    -2.2850 ca         1 3VH      -0.109000
      7 C17          7.3560     2.0980    -3.1280 ca         1 3VH      -0.111000
      8 C16          6.2180     1.4860    -2.6240 ca         1 3VH      -0.091000
      9 C14          5.8620     1.5850    -1.2800 ca         1 3VH      -0.056300
     10 C13          4.6210     0.9060    -0.7730 c3         1 3VH      -0.039100
     11 C12          4.9280    -0.3810     0.0220 c3         1 3VH       0.055700
     12 N4           5.8030    -1.2970    -0.6610 ns         1 3VH      -0.494900
     13 C11          3.6360    -1.0840     0.4610 c          1 3VH       0.595100
     14 O4           3.2890    -2.1440    -0.0300 o          1 3VH      -0.574100
     15 N5           2.9080    -0.4830     1.4210 n          1 3VH      -0.401800
     16 C30          3.2500     0.6980     2.2050 c5         1 3VH       0.107000
     17 C29          2.3990     0.5350     3.4530 c5         1 3VH      -0.096400
     18 C34          1.1230    -0.0720     2.8900 c5         1 3VH      -0.077400
     19 C35          1.6430    -1.0770     1.8310 c5         1 3VH       0.075600
     20 C31          0.6610    -1.1070     0.6620 c          1 3VH       0.591000
     21 O3           0.7430    -0.3260    -0.2720 o          1 3VH      -0.553000
     22 N3          -0.3230    -2.0060     0.7720 n          1 3VH      -0.384800
     23 C26          1.8290    -2.4450     2.4360 c2         1 3VH      -0.200200
     24 C28          0.8400    -3.3250     2.4550 c2         1 3VH      -0.217200
     25 C27         -0.4680    -3.0090     1.8160 c5         1 3VH       0.144900
     26 C24         -1.1530    -4.1410     1.0580 c5         1 3VH      -0.086400
     27 C9          -2.1320    -3.3860     0.1650 c5         1 3VH      -0.089400
     28 C10         -1.3690    -2.0980    -0.2190 c5         1 3VH       0.032700
     29 C20         -2.2930    -0.8910    -0.1440 c          1 3VH       0.614100
     30 O6          -2.2840    -0.1390     0.8180 o          1 3VH      -0.596100
     31 N2          -3.1600    -0.7430    -1.1580 n          1 3VH      -0.392800
     32 C22         -3.1650    -1.4390    -2.4420 c5         1 3VH       0.110000
     33 C23         -3.9230    -0.4740    -3.3450 c5         1 3VH      -0.090400
     34 C8          -4.9670     0.1100    -2.3980 c5         1 3VH      -0.045500
     35 C21         -4.1780     0.2760    -1.0900 c5         1 3VH       0.023700
     36 C25         -5.1580     0.0900     0.0490 c          1 3VH       0.586000
     37 O7          -5.2360    -0.9420     0.6950 o          1 3VH      -0.559000
     38 C7          -5.6330     1.3760    -2.8290 c2         1 3VH      -0.195200
     39 C6          -6.0460     2.3430    -2.0170 c2         1 3VH      -0.211200
     40 C5          -5.9480     2.3970    -0.5080 c5         1 3VH       0.198100
     41 C4          -7.1320     3.1060     0.0880 c2         1 3VH      -0.312200
     42 C3          -7.7930     2.3330     0.9360 c2         1 3VH      -0.148200
     43 C2          -7.1830     0.9720     1.0360 c5         1 3VH      -0.021100
     44 N1          -5.9990     1.1210     0.2090 n          1 3VH      -0.376800
     45 C1          -8.1840    -0.0980     0.5160 c          1 3VH       0.733000
     46 O2          -9.0480    -0.4340     1.3480 o          1 3VH      -0.714500
     47 O1          -8.0660    -0.4700    -0.6600 o          1 3VH      -0.714500
     48 H9           7.0540    -2.5780    -3.2730 hc         1 3VH       0.055367
     49 H10          7.4550    -2.9680    -1.5960 hc         1 3VH       0.055367
     50 H11          6.1410    -3.8110    -2.4190 hc         1 3VH       0.055367
     51 H3           7.5990     1.9990    -4.1780 ha         1 3VH       0.116000
     52 H4           5.5840     0.9070    -3.2820 ha         1 3VH       0.140000
     53 H7           5.4730    -0.0880     0.9220 h1         1 3VH       0.056700
     54 H8           6.5620    -1.6660    -0.1130 hn         1 3VH       0.308500
     55 H12          4.3150     0.7380     2.4260 h1         1 3VH       0.047700
     56 H13          2.9750     1.6170     1.6800 h1         1 3VH       0.047700
     57 H14          2.8800    -0.1470     4.1570 hc         1 3VH       0.050700
     58 H15          2.2290     1.4830     3.9600 hc         1 3VH       0.050700
     59 H16          0.4950    -0.5620     3.6320 hc         1 3VH       0.076700
     60 H17          0.5240     0.7050     2.4080 hc         1 3VH       0.076700
     61 H18          2.7790    -2.6560     2.9110 ha         1 3VH       0.178000
     62 H19          0.9390    -4.2800     2.9570 ha         1 3VH       0.183000
     63 H20         -1.1610    -2.6400     2.5870 h1         1 3VH       0.073700
     64 H21         -0.4170    -4.6840     0.4600 hc         1 3VH       0.052700
     65 H22         -1.6460    -4.8490     1.7230 hc         1 3VH       0.052700
     66 H23         -2.4380    -3.9490    -0.7150 hc         1 3VH       0.073200
     67 H24         -3.0350    -3.1350     0.7250 hc         1 3VH       0.073200
     68 H25         -0.9260    -2.1900    -1.2140 h1         1 3VH       0.076700
     69 H26         -2.1540    -1.6310    -2.7980 h1         1 3VH       0.042700
     70 H27         -3.6870    -2.3970    -2.3700 h1         1 3VH       0.042700
     71 H28         -3.2550     0.3080    -3.7160 hc         1 3VH       0.046200
     72 H29         -4.3680    -0.9770    -4.2040 hc         1 3VH       0.046200
     73 H30         -5.7410    -0.6530    -2.2420 hc         1 3VH       0.116700
     74 H31         -3.7170     1.2700    -1.0510 h1         1 3VH       0.067700
     75 H32         -5.8020     1.4960    -3.8950 ha         1 3VH       0.158000
     76 H33         -6.4900     3.2280    -2.4610 ha         1 3VH       0.161000
     77 H34         -5.0270     2.9370    -0.2450 h1         1 3VH       0.041700
     78 H35         -7.3760     4.1240    -0.1820 ha         1 3VH       0.168000
     79 H36         -8.6800     2.6100     1.4890 ha         1 3VH       0.188000
     80 H37         -6.9120     0.7300     2.0690 h1         1 3VH       0.075700
     81 H5           4.0660     1.5900    -0.1310 hc         1 3VH       0.085700
     82 H1           8.4760     3.5340    -0.2780 ha         1 3VH       0.123000
     83 CL           6.3310     2.5430     1.2250 cl         1 3VH      -0.227000
     84 H6           3.9690     0.6730    -1.6110 hc         1 3VH       0.085700
     85 H2           9.0670     3.3150    -2.6650 ha         1 3VH       0.112000
@<TRIPOS>BOND
     1     1     2 2   
     2     1     3 1   
     3     1    12 1   
     4     3    48 1   
     5     3    49 1   
     6     3    50 1   
     7     4     5 ar  
     8     4     9 ar  
     9     4    83 1   
    10     5     6 ar  
    11     5    82 1   
    12     6     7 ar  
    13     6    85 1   
    14     7     8 ar  
    15     7    51 1   
    16     8     9 ar  
    17     8    52 1   
    18     9    10 1   
    19    10    11 1   
    20    10    81 1   
    21    10    84 1   
    22    11    12 1   
    23    11    13 1   
    24    11    53 1   
    25    12    54 1   
    26    13    14 2   
    27    13    15 1   
    28    15    16 1   
    29    15    19 1   
    30    16    17 1   
    31    16    55 1   
    32    16    56 1   
    33    17    18 1   
    34    17    57 1   
    35    17    58 1   
    36    18    19 1   
    37    18    59 1   
    38    18    60 1   
    39    19    20 1   
    40    19    23 1   
    41    20    21 2   
    42    20    22 1   
    43    22    25 1   
    44    22    28 1   
    45    23    24 2   
    46    23    61 1   
    47    24    25 1   
    48    24    62 1   
    49    25    26 1   
    50    25    63 1   
    51    26    27 1   
    52    26    64 1   
    53    26    65 1   
    54    27    28 1   
    55    27    66 1   
    56    27    67 1   
    57    28    29 1   
    58    28    68 1   
    59    29    30 2   
    60    29    31 1   
    61    31    32 1   
    62    31    35 1   
    63    32    33 1   
    64    32    69 1   
    65    32    70 1   
    66    33    34 1   
    67    33    71 1   
    68    33    72 1   
    69    34    35 1   
    70    34    38 1   
    71    34    73 1   
    72    35    36 1   
    73    35    74 1   
    74    36    37 2   
    75    36    44 1   
    76    38    39 2   
    77    38    75 1   
    78    39    40 1   
    79    39    76 1   
    80    40    41 1   
    81    40    44 1   
    82    40    77 1   
    83    41    42 2   
    84    41    78 1   
    85    42    43 1   
    86    42    79 1   
    87    43    44 1   
    88    43    45 1   
    89    43    80 1   
    90    45    46 1   
    91    45    47 1   
@<TRIPOS>SUBSTRUCTURE
     1 3VH         1 TEMP              0 ****  ****    0 ROOT
