@<TRIPOS>MOLECULE
3VI
   33    34     1     0     0
SMALL
No Charge or Current Charge


@<TRIPOS>ATOM
      1 CAC         94.4050    49.8450   -11.5150 ce         1 3VI       0.331300
      2 CAE         92.0460    49.8870   -10.5630 ca         1 3VI      -0.107250
      3 CAF         93.5590    51.7180   -10.0670 ca         1 3VI      -0.107250
      4 CAG         90.9330    51.1670    -4.7850 ca         1 3VI      -0.107250
      5 CAH         91.2750    53.5690    -4.8620 ca         1 3VI      -0.107250
      6 CAI         91.0480    50.5150    -9.7950 ca         1 3VI      -0.003050
      7 CAJ         92.5480    52.3330    -9.3030 ca         1 3VI      -0.053750
      8 CAK         90.5820    51.1830    -6.1490 ca         1 3VI      -0.003050
      9 CAL         90.9220    53.5660    -6.2250 ca         1 3VI      -0.053750
     10 CAM         90.2540    52.3730    -8.3190 c3         1 3VI       0.155600
     11 CAP         93.3200    50.4840   -10.7070 ca         1 3VI       0.063100
     12 CAQ         91.2860    52.3630    -4.1240 ca         1 3VI       0.063100
     13 NAN         94.2370    48.7110   -12.1270 n2         1 3VI      -0.231200
     14 NAO         91.9860    53.3990    -2.0170 n2         1 3VI      -0.231200
     15 NAR         91.2930    51.7350    -9.1560 na         1 3VI      -0.008700
     16 NAS         90.5800    52.3760    -6.8770 na         1 3VI      -0.008700
     17 OAA         95.3650    48.2610   -12.8390 oh         1 3VI      -0.432000
     18 OAB         92.3030    53.1760    -0.6640 oh         1 3VI      -0.432000
     19 H1          95.3540    50.3840   -11.5670 h4         1 3VI       0.058800
     20 H2          91.6340    51.3470    -2.1910 h4         1 3VI       0.058800
     21 H3          91.8240    48.9360   -11.0450 ha         1 3VI       0.198500
     22 H4          94.5290    52.2040   -10.1620 ha         1 3VI       0.198500
     23 H5          90.9290    50.2230    -4.2430 ha         1 3VI       0.198500
     24 H6          91.5390    54.5110    -4.3840 ha         1 3VI       0.198500
     25 H7          90.0610    50.0630    -9.6810 h4         1 3VI       0.181000
     26 H8          92.7230    53.2880    -8.8030 h4         1 3VI       0.181000
     27 H9          90.3080    50.2640    -6.6700 h4         1 3VI       0.181000
     28 H10         90.9090    54.4930    -6.8030 h4         1 3VI       0.181000
     29 H11         90.1220    53.4050    -8.6620 h2         1 3VI       0.139700
     30 H12         89.3040    51.8470    -8.4570 h2         1 3VI       0.139700
     31 H13         95.0880    47.4030   -13.2430 ho         1 3VI       0.514500
     32 H14         92.5290    54.0680    -0.3030 ho         1 3VI       0.514500
     33 CAD         91.6560    52.3270    -2.6740 ce         1 3VI       0.331300
@<TRIPOS>BOND
     1     1    11 1   
     2     1    13 2   
     3     1    19 1   
     4     2     6 ar  
     5     2    11 ar  
     6     2    21 1   
     7     3     7 ar  
     8     3    11 ar  
     9     3    22 1   
    10     4     8 ar  
    11     4    12 ar  
    12     4    23 1   
    13     5     9 ar  
    14     5    12 ar  
    15     5    24 1   
    16     6    15 2   
    17     6    25 1   
    18     7    15 1   
    19     7    26 1   
    20     8    16 2   
    21     8    27 1   
    22     9    16 1   
    23     9    28 1   
    24    10    15 1   
    25    10    16 1   
    26    10    29 1   
    27    10    30 1   
    28    12    33 1   
    29    13    17 1   
    30    14    18 1   
    31    14    33 2   
    32    17    31 1   
    33    18    32 1   
    34    20    33 1   
@<TRIPOS>SUBSTRUCTURE
     1 3VI         1 TEMP              0 ****  ****    0 ROOT
