@<TRIPOS>MOLECULE
3VI
   33    34     1     0     0
SMALL
abcg2


@<TRIPOS>ATOM
      1 CAC         94.3970    50.0390   -11.3870 ce         1 3VI       0.331300
      2 CAE         92.2070    49.8740   -10.1880 ca         1 3VI      -0.107250
      3 CAF         93.3590    51.9720   -10.2730 ca         1 3VI      -0.107250
      4 CAG         90.6030    51.1770    -4.8550 ca         1 3VI      -0.107250
      5 CAH         91.5540    53.3690    -5.0110 ca         1 3VI      -0.107250
      6 CAI         91.2220    50.4800    -9.4600 ca         1 3VI      -0.003050
      7 CAJ         92.3460    52.5320    -9.5430 ca         1 3VI      -0.053750
      8 CAK         90.2730    51.2510    -6.1820 ca         1 3VI      -0.003050
      9 CAL         91.2020    53.3950    -6.3300 ca         1 3VI      -0.053750
     10 CAM         90.2460    52.3930    -8.3270 c3         1 3VI       0.155600
     11 CAP         93.3150    50.6180   -10.6100 ca         1 3VI       0.063100
     12 CAQ         91.2610    52.2410    -4.2360 ca         1 3VI       0.063100
     13 NAN         94.3250    48.8050   -11.6930 n2         1 3VI      -0.231200
     14 NAO         92.2060    53.1280    -2.2860 n2         1 3VI      -0.231200
     15 NAR         91.3010    51.7870    -9.1370 na         1 3VI      -0.008700
     16 NAS         90.5790    52.3440    -6.9040 na         1 3VI      -0.008700
     17 OAA         95.3620    48.3700   -12.4070 oh         1 3VI      -0.432000
     18 OAB         92.4750    52.9430    -0.9950 oh         1 3VI      -0.432000
     19 H1          95.2270    50.6780   -11.6810 h4         1 3VI       0.058800
     20 H2          91.3350    51.2400    -2.2880 h4         1 3VI       0.058800
     21 H3          92.1040    48.8270   -10.4280 ha         1 3VI       0.198500
     22 H4          94.1820    52.6010   -10.5840 ha         1 3VI       0.198500
     23 H5          90.3380    50.2850    -4.3040 ha         1 3VI       0.198500
     24 H6          92.0490    54.2310    -4.5900 ha         1 3VI       0.198500
     25 H7          90.3450    49.9430    -9.1280 h4         1 3VI       0.181000
     26 H8          92.3420    53.5810    -9.2810 h4         1 3VI       0.181000
     27 H9          89.7540    50.4480    -6.6850 h4         1 3VI       0.181000
     28 H10         91.3960    54.2540    -6.9570 h4         1 3VI       0.181000
     29 H11         90.1120    53.4290    -8.6250 h2         1 3VI       0.139700
     30 H12         89.3150    51.8600    -8.4970 h2         1 3VI       0.139700
     31 H13         95.1850    47.4350   -12.5700 ho         1 3VI       0.514500
     32 H14         92.9290    53.7480    -0.7120 ho         1 3VI       0.514500
     33 CAD         91.6040    52.1450    -2.8280 ce         1 3VI       0.331300
@<TRIPOS>BOND
     1     1    11 1   
     2     1    13 2   
     3     1    19 1   
     4     2     6 ar  
     5     2    11 ar  
     6     2    21 1   
     7     3     7 ar  
     8     3    11 ar  
     9     3    22 1   
    10     4     8 ar  
    11     4    12 ar  
    12     4    23 1   
    13     5     9 ar  
    14     5    12 ar  
    15     5    24 1   
    16     6    15 2   
    17     6    25 1   
    18     7    15 1   
    19     7    26 1   
    20     8    16 2   
    21     8    27 1   
    22     9    16 1   
    23     9    28 1   
    24    10    15 1   
    25    10    16 1   
    26    10    29 1   
    27    10    30 1   
    28    12    33 1   
    29    13    17 1   
    30    14    18 1   
    31    14    33 2   
    32    17    31 1   
    33    18    32 1   
    34    20    33 1   
@<TRIPOS>SUBSTRUCTURE
     1 3VI         1 TEMP              0 ****  ****    0 ROOT
