@<TRIPOS>MOLECULE
3VJ
   54    55     1     0     0
SMALL
No Charge or Current Charge


@<TRIPOS>ATOM
      1 C1           1.1140    -3.0570    -0.0570 ca         1 3VJ       0.193100
      2 C2           1.5410    -1.7720     0.3110 ca         1 3VJ      -0.210600
      3 C3           0.6100    -0.7190     0.4030 ca         1 3VJ       0.008000
      4 C13          2.8110     1.3510    -1.6210 ca         1 3VJ      -0.102500
      5 C14          2.3810     2.6870    -1.5670 ca         1 3VJ       0.131000
      6 C15          2.4990     3.4240    -0.3820 ca         1 3VJ      -0.088000
      7 C16          3.0490     2.8190     0.7540 ca         1 3VJ       0.131000
      8 C17          3.4800     1.4830     0.7080 ca         1 3VJ      -0.102500
      9 C22         -4.1180     0.9890    -0.0260 c3         1 3VJ       0.021000
     10 C23         -5.4880     0.3860    -0.4120 c          1 3VJ       0.588100
     11 C26         -7.9410     0.9150    -0.7090 c3         1 3VJ       0.039700
     12 C30         -8.5960     0.0750     0.3760 c2         1 3VJ       0.393200
     13 C4          -0.7560    -0.9310     0.1180 ca         1 3VJ      -0.192600
     14 C5          -1.1760    -2.2280    -0.2550 ca         1 3VJ      -0.028000
     15 C6          -0.2490    -3.2800    -0.3390 ca         1 3VJ      -0.217000
     16 C7           2.9920    -1.5260     0.5960 c          1 3VJ       0.604700
     17 C8           3.8320    -0.7550    -0.4740 c3         1 3VJ      -0.087700
     18 O9           3.4770    -1.9110     1.6540 o          1 3VJ      -0.491100
     19 C10          3.3700     0.7230    -0.4800 ca         1 3VJ      -0.060300
     20 O11          2.0580    -4.0610    -0.1480 os         1 3VJ      -0.334100
     21 Cl2          3.1940     3.7330     2.2500 cl         1 3VJ      -0.192500
     22 N20         -3.0360    -0.0200    -0.0700 ns         1 3VJ      -0.498900
     23 O21         -1.3490     1.3540     0.5470 o          1 3VJ      -0.611100
     24 O24         -5.6420    -0.7910    -0.7130 o          1 3VJ      -0.611100
     25 N25         -6.5430     1.2740    -0.3940 ns         1 3VJ      -0.499900
     26 N31         -9.0270     0.5690     1.4850 n2         1 3VJ      -0.739100
     27 H1           0.9480     0.2720     0.7020 ha         1 3VJ       0.149000
     28 H2           2.6950     0.8230    -2.5630 ha         1 3VJ       0.137000
     29 H3           2.1630     4.4570    -0.3440 ha         1 3VJ       0.146000
     30 H4           3.8920     1.0400     1.6110 ha         1 3VJ       0.137000
     31 H5          -3.8890     1.8040    -0.7250 h1         1 3VJ       0.068700
     32 H6          -4.1940     1.4050     0.9860 h1         1 3VJ       0.068700
     33 H7          -7.9630     0.3580    -1.6560 h1         1 3VJ       0.080200
     34 H8          -8.5210     1.8350    -0.8530 h1         1 3VJ       0.080200
     35 H9           2.6190    -6.0340    -0.5460 h1         1 3VJ       0.046700
     36 H10          1.0030    -5.8460     0.1650 h1         1 3VJ       0.046700
     37 H11          1.2850    -5.4210    -1.5450 h1         1 3VJ       0.046700
     38 H12          5.7190    -1.8380    -0.1290 hc         1 3VJ       0.045533
     39 H13          5.9340    -0.2410    -0.8690 hc         1 3VJ       0.045533
     40 H14          5.5640    -0.3770     0.8570 hc         1 3VJ       0.045533
     41 H15          3.9620    -2.5140    -1.7880 hc         1 3VJ       0.045533
     42 H16          2.5980    -1.4570    -2.1740 hc         1 3VJ       0.045533
     43 H17          4.2490    -0.9830    -2.6280 hc         1 3VJ       0.045533
     44 H18         -8.6950    -0.9900     0.1850 h4         1 3VJ      -0.027200
     45 H19         -2.2170    -2.4430    -0.4830 ha         1 3VJ       0.115000
     46 H20         -0.6100    -4.2620    -0.6300 ha         1 3VJ       0.124000
     47 H21         -3.2790    -0.9680    -0.3340 hn         1 3VJ       0.342500
     48 H22         -6.3350     2.2290    -0.1210 hn         1 3VJ       0.323500
     49 H23         -9.4260    -0.1900     2.0580 hn         1 3VJ       0.381400
     50 C12         -1.7160     0.2340     0.2210 c          1 3VJ       0.623700
     51 Cl1          1.6850     3.4390    -2.9970 cl         1 3VJ      -0.192500
     52 C27          1.7210    -5.4040    -0.5380 c3         1 3VJ       0.147900
     53 C28          5.3520    -0.8040    -0.1300 c3         1 3VJ      -0.079600
     54 C29          3.6460    -1.4660    -1.8490 c3         1 3VJ      -0.079600
@<TRIPOS>BOND
     1     1     2 ar  
     2     1    15 ar  
     3     1    20 1   
     4     2     3 ar  
     5     2    16 1   
     6     3    13 ar  
     7     3    27 1   
     8     4     5 ar  
     9     4    19 ar  
    10     4    28 1   
    11     5     6 ar  
    12     5    51 1   
    13     6     7 ar  
    14     6    29 1   
    15     7     8 ar  
    16     7    21 1   
    17     8    19 ar  
    18     8    30 1   
    19     9    10 1   
    20     9    22 1   
    21     9    31 1   
    22     9    32 1   
    23    10    24 2   
    24    10    25 1   
    25    11    12 1   
    26    11    25 1   
    27    11    33 1   
    28    11    34 1   
    29    12    26 2   
    30    12    44 1   
    31    13    14 ar  
    32    13    50 1   
    33    14    15 ar  
    34    14    45 1   
    35    15    46 1   
    36    16    17 1   
    37    16    18 2   
    38    17    19 1   
    39    17    53 1   
    40    17    54 1   
    41    20    52 1   
    42    22    47 1   
    43    22    50 1   
    44    23    50 2   
    45    25    48 1   
    46    26    49 1   
    47    35    52 1   
    48    36    52 1   
    49    37    52 1   
    50    38    53 1   
    51    39    53 1   
    52    40    53 1   
    53    41    54 1   
    54    42    54 1   
    55    43    54 1   
@<TRIPOS>SUBSTRUCTURE
     1 3VJ         1 TEMP              0 ****  ****    0 ROOT
