@<TRIPOS>MOLECULE
3VJ
   54    55     1     0     0
SMALL
abcg2


@<TRIPOS>ATOM
      1 C1           1.1540    -3.0750    -0.2020 ca         1 3VJ       0.193100
      2 C2           1.5300    -1.7800     0.1860 ca         1 3VJ      -0.210600
      3 C3           0.5760    -0.7820     0.2540 ca         1 3VJ       0.008000
      4 C13          2.7170     1.2900    -1.5360 ca         1 3VJ      -0.102500
      5 C14          2.2140     2.5790    -1.4480 ca         1 3VJ       0.131000
      6 C15          2.2580     3.3050    -0.2720 ca         1 3VJ      -0.088000
      7 C16          2.8320     2.6970     0.8330 ca         1 3VJ       0.131000
      8 C17          3.3420     1.4130     0.7770 ca         1 3VJ      -0.102500
      9 C22         -4.0210     0.8590    -0.0840 c3         1 3VJ       0.021000
     10 C23         -5.3860     0.2400    -0.3340 c          1 3VJ       0.588100
     11 C26         -7.7730     0.7570    -0.5780 c3         1 3VJ       0.039700
     12 C30         -8.4850     0.5620     0.7300 c2         1 3VJ       0.393200
     13 C4          -0.7620    -1.0330    -0.0520 ca         1 3VJ      -0.192600
     14 C5          -1.1150    -2.3180    -0.4470 ca         1 3VJ      -0.028000
     15 C6          -0.1750    -3.3330    -0.5250 ca         1 3VJ      -0.217000
     16 C7           2.9670    -1.5330     0.5530 c          1 3VJ       0.604700
     17 C8           3.8210    -0.7330    -0.4370 c3         1 3VJ      -0.087700
     18 O9           3.4140    -1.9740     1.5830 o          1 3VJ      -0.491100
     19 C10          3.2850     0.6940    -0.4170 ca         1 3VJ      -0.060300
     20 O11          2.1350    -3.9810    -0.2550 os         1 3VJ      -0.334100
     21 CL2          2.9040     3.5710     2.3250 cl         1 3VJ      -0.192500
     22 N20         -3.0180    -0.1660    -0.1260 ns         1 3VJ      -0.498900
     23 O21         -1.3210     1.2480     0.2670 o          1 3VJ      -0.611100
     24 O24         -5.5330    -0.9650    -0.4760 o          1 3VJ      -0.611100
     25 N25         -6.3890     1.1260    -0.3870 ns         1 3VJ      -0.499900
     26 N31         -9.5950     1.1170     0.9580 n2         1 3VJ      -0.739100
     27 H1           0.8560     0.2160     0.5580 ha         1 3VJ       0.149000
     28 H2           2.6530     0.7610    -2.4760 ha         1 3VJ       0.137000
     29 H3           1.8590     4.3080    -0.2160 ha         1 3VJ       0.146000
     30 H4           3.7690     0.9730     1.6680 ha         1 3VJ       0.137000
     31 H5          -3.8340     1.6290    -0.8380 h1         1 3VJ       0.068700
     32 H6          -4.0360     1.3680     0.8850 h1         1 3VJ       0.068700
     33 H7          -7.8170    -0.1680    -1.1570 h1         1 3VJ       0.080200
     34 H8          -8.2750     1.5320    -1.1560 h1         1 3VJ       0.080200
     35 H9           2.7690    -5.8460    -0.6740 h1         1 3VJ       0.046700
     36 H10          1.1190    -5.7860    -0.0280 h1         1 3VJ       0.046700
     37 H11          1.4370    -5.2990    -1.7100 h1         1 3VJ       0.046700
     38 H12          5.6860    -1.7610    -0.0330 hc         1 3VJ       0.045533
     39 H13          5.8750    -0.1470    -0.7180 hc         1 3VJ       0.045533
     40 H14          5.4560    -0.3400     0.9810 hc         1 3VJ       0.045533
     41 H15          4.0840    -2.4110    -1.7720 hc         1 3VJ       0.045533
     42 H16          2.6720    -1.4390    -2.1730 hc         1 3VJ       0.045533
     43 H17          4.2920    -0.8470    -2.5480 hc         1 3VJ       0.045533
     44 H18         -7.9730    -0.0890     1.4440 h4         1 3VJ      -0.027200
     45 H19         -2.1310    -2.5710    -0.7210 ha         1 3VJ       0.115000
     46 H20         -0.4960    -4.3150    -0.8410 ha         1 3VJ       0.124000
     47 H21         -3.3510    -1.1070    -0.2630 hn         1 3VJ       0.342500
     48 H22         -6.1890     2.0990    -0.2190 hn         1 3VJ       0.323500
     49 H23         -9.9370     0.8650     1.8820 hn         1 3VJ       0.381400
     50 C12         -1.7160     0.1100     0.0440 c          1 3VJ       0.623700
     51 CL1          1.5010     3.3010    -2.8490 cl         1 3VJ      -0.192500
     52 C27          1.8330    -5.2950    -0.6920 c3         1 3VJ       0.147900
     53 C28          5.2920    -0.7440    -0.0160 c3         1 3VJ      -0.079600
     54 C29          3.6990    -1.3930    -1.8130 c3         1 3VJ      -0.079600
@<TRIPOS>BOND
     1     1     2 ar  
     2     1    15 ar  
     3     1    20 1   
     4     2     3 ar  
     5     2    16 1   
     6     3    13 ar  
     7     3    27 1   
     8     4     5 ar  
     9     4    19 ar  
    10     4    28 1   
    11     5     6 ar  
    12     5    51 1   
    13     6     7 ar  
    14     6    29 1   
    15     7     8 ar  
    16     7    21 1   
    17     8    19 ar  
    18     8    30 1   
    19     9    10 1   
    20     9    22 1   
    21     9    31 1   
    22     9    32 1   
    23    10    24 2   
    24    10    25 1   
    25    11    12 1   
    26    11    25 1   
    27    11    33 1   
    28    11    34 1   
    29    12    26 2   
    30    12    44 1   
    31    13    14 ar  
    32    13    50 1   
    33    14    15 ar  
    34    14    45 1   
    35    15    46 1   
    36    16    17 1   
    37    16    18 2   
    38    17    19 1   
    39    17    53 1   
    40    17    54 1   
    41    20    52 1   
    42    22    47 1   
    43    22    50 1   
    44    23    50 2   
    45    25    48 1   
    46    26    49 1   
    47    35    52 1   
    48    36    52 1   
    49    37    52 1   
    50    38    53 1   
    51    39    53 1   
    52    40    53 1   
    53    41    54 1   
    54    42    54 1   
    55    43    54 1   
@<TRIPOS>SUBSTRUCTURE
     1 3VJ         1 TEMP              0 ****  ****    0 ROOT
