@<TRIPOS>MOLECULE
3VK
   68    68     1     0     0
SMALL
abcg2


@<TRIPOS>ATOM
      1 C1          -3.4150     3.5910     0.0900 ca         1 3VK      -0.092000
      2 C2          -3.2990     2.9060    -1.1080 ca         1 3VK       0.119500
      3 C3          -3.6960     1.5850    -1.2330 ca         1 3VK      -0.080000
      4 C14         -1.3740    -2.5140    -0.2970 c3         1 3VK       0.041700
      5 C15         -0.2510    -1.7750    -1.0220 c          1 3VK       0.593100
      6 C18         -1.4340    -4.0270    -0.6420 c3         1 3VK      -0.050000
      7 C19         -2.5350    -4.6640     0.2100 c3         1 3VK      -0.087433
      8 C20         -1.7490    -4.2730    -2.1190 c3         1 3VK      -0.087433
      9 C21         -0.0970    -4.6830    -0.2940 c3         1 3VK      -0.087433
     10 C22          2.0420    -0.9750    -0.8530 c3         1 3VK       0.019000
     11 C23          3.1380    -0.9740     0.2010 c          1 3VK       0.587100
     12 C25          5.3870    -0.1990     0.7400 c3         1 3VK       0.112000
     13 C27          6.5260     0.5220     0.0370 c3         1 3VK      -0.071400
     14 C28          7.7050     0.6690     0.9870 c3         1 3VK      -0.301400
     15 C30         10.3160     1.6050     1.4310 c3         1 3VK      -0.335100
     16 C4          -4.2210     0.9240    -0.1300 ca         1 3VK      -0.086300
     17 C5          -4.3450     1.5870     1.0870 ca         1 3VK      -0.080000
     18 C6          -3.9440     2.9090     1.1750 ca         1 3VK       0.119500
     19 CL7         -4.1000     3.7410     2.6850 cl         1 3VK      -0.191500
     20 CL8         -2.6450     3.7270    -2.4830 cl         1 3VK      -0.191500
     21 C9          -4.6130    -0.5300    -0.2440 c3         1 3VK       0.147800
     22 C10         -3.4450    -1.3440     0.3370 c          1 3VK       0.603100
     23 N11         -5.8180    -0.8010     0.4970 n7         1 3VK      -0.846400
     24 O12         -3.2960    -1.4820     1.5360 o          1 3VK      -0.572100
     25 N13         -2.6100    -1.8310    -0.5950 ns         1 3VK      -0.499900
     26 O17         -0.3840    -1.3710    -2.1690 o          1 3VK      -0.618100
     27 N24          4.2460    -0.3130    -0.1440 ns         1 3VK      -0.503900
     28 O26          3.0020    -1.5470     1.2730 o          1 3VK      -0.609100
     29 S29          9.0780     1.4700     0.1630 s6         1 3VK       1.083000
     30 O31          9.5740     0.5730    -0.8830 o          1 3VK      -0.514000
     31 O32          8.6620     2.8160    -0.2340 o          1 3VK      -0.514000
     32 C33         -6.3340    -2.1460     0.2960 c3         1 3VK       0.158800
     33 C34         -7.6420    -2.3360     1.0400 c3         1 3VK      -0.093100
     34 H1          -3.1070     4.6240     0.1750 ha         1 3VK       0.144000
     35 H2          -3.6060     1.0750    -2.1830 ha         1 3VK       0.147500
     36 H3          -1.2180    -2.4340     0.7800 h1         1 3VK       0.090700
     37 H4          -3.5240    -4.2960    -0.0660 hc         1 3VK       0.039367
     38 H5          -2.5380    -5.7450     0.0640 hc         1 3VK       0.039367
     39 H6          -2.3880    -4.4690     1.2740 hc         1 3VK       0.039367
     40 H7          -0.9700    -3.8950    -2.7800 hc         1 3VK       0.039367
     41 H8          -1.8420    -5.3460    -2.2950 hc         1 3VK       0.039367
     42 H9          -2.6960    -3.8180    -2.4150 hc         1 3VK       0.039367
     43 H10          0.1760    -4.5190     0.7520 hc         1 3VK       0.039367
     44 H11         -0.1630    -5.7610    -0.4490 hc         1 3VK       0.039367
     45 H12          0.7220    -4.3170    -0.9150 hc         1 3VK       0.039367
     46 H13          1.8340     0.0530    -1.1650 h1         1 3VK       0.068700
     47 H14          2.4010    -1.5070    -1.7400 h1         1 3VK       0.068700
     48 H15          5.7140    -1.1940     1.0500 h1         1 3VK       0.056200
     49 H16          5.1070     0.3440     1.6470 h1         1 3VK       0.056200
     50 H17          6.8260    -0.0430    -0.8490 hc         1 3VK       0.067700
     51 H18          6.1920     1.5080    -0.2930 hc         1 3VK       0.067700
     52 H19          7.4470     1.2780     1.8550 h1         1 3VK       0.098200
     53 H20          8.0660    -0.2990     1.3370 h1         1 3VK       0.098200
     54 H21         10.5910     0.6120     1.7790 h1         1 3VK       0.105700
     55 H22         11.1800     2.0970     0.9870 h1         1 3VK       0.105700
     56 H23          9.9320     2.2050     2.2530 h1         1 3VK       0.105700
     57 H24         -4.7480     1.0710     1.9470 ha         1 3VK       0.147500
     58 H25         -4.7140    -0.7720    -1.3150 h1         1 3VK       0.031700
     59 H26         -6.5250    -0.1310     0.2150 hn         1 3VK       0.420000
     60 H28         -2.8050    -1.6410    -1.5650 hn         1 3VK       0.328500
     61 H29          0.9360    -1.9440     0.6340 hn         1 3VK       0.348500
     62 H30          4.2710     0.1720    -1.0280 hn         1 3VK       0.322500
     63 H31         -6.4780    -2.3780    -0.7690 h1         1 3VK       0.032700
     64 H32         -5.6000    -2.8620     0.6730 h1         1 3VK       0.032700
     65 H33         -8.0150    -3.3500     0.9050 hc         1 3VK       0.040700
     66 H34         -7.5140    -2.1590     2.1090 hc         1 3VK       0.040700
     67 H35         -8.4100    -1.6510     0.6740 hc         1 3VK       0.040700
     68 N16          0.8680    -1.6010    -0.3120 ns         1 3VK      -0.491900
@<TRIPOS>BOND
     1     1     2 ar  
     2     1    18 ar  
     3     1    34 1   
     4     2     3 ar  
     5     2    20 1   
     6     3    16 ar  
     7     3    35 1   
     8     4     5 1   
     9     4     6 1   
    10     4    25 1   
    11     4    36 1   
    12     5    26 2   
    13     5    68 1   
    14     6     7 1   
    15     6     8 1   
    16     6     9 1   
    17     7    37 1   
    18     7    38 1   
    19     7    39 1   
    20     8    40 1   
    21     8    41 1   
    22     8    42 1   
    23     9    43 1   
    24     9    44 1   
    25     9    45 1   
    26    10    11 1   
    27    10    46 1   
    28    10    47 1   
    29    10    68 1   
    30    11    27 1   
    31    11    28 2   
    32    12    13 1   
    33    12    27 1   
    34    12    48 1   
    35    12    49 1   
    36    13    14 1   
    37    13    50 1   
    38    13    51 1   
    39    14    29 1   
    40    14    52 1   
    41    14    53 1   
    42    15    29 1   
    43    15    54 1   
    44    15    55 1   
    45    15    56 1   
    46    16    17 ar  
    47    16    21 1   
    48    17    18 ar  
    49    17    57 1   
    50    18    19 1   
    51    21    22 1   
    52    21    23 1   
    53    21    58 1   
    54    22    24 2   
    55    22    25 1   
    56    23    32 1   
    57    23    59 1   
    58    25    60 1   
    59    27    62 1   
    60    29    30 2   
    61    29    31 2   
    62    32    33 1   
    63    32    63 1   
    64    32    64 1   
    65    33    65 1   
    66    33    66 1   
    67    33    67 1   
    68    61    68 1   
@<TRIPOS>SUBSTRUCTURE
     1 3VK         1 TEMP              0 ****  ****    0 ROOT
