@<TRIPOS>MOLECULE
3VK
   68    68     1     0     0
SMALL
No Charge or Current Charge


@<TRIPOS>ATOM
      1 C1          -5.8880     3.6910     1.2050 ca         1 3VK      -0.092000
      2 C2          -5.0630     3.6360     0.0710 ca         1 3VK       0.119500
      3 C3          -4.6710     2.3960    -0.4610 ca         1 3VK      -0.080000
      4 C14         -1.3240    -2.0210     0.2980 c3         1 3VK       0.041700
      5 C15         -0.1690    -1.5010    -0.5890 c          1 3VK       0.593100
      6 C18         -1.4240    -3.5910     0.3950 c3         1 3VK      -0.050000
      7 C19         -2.5790    -3.9890     1.3560 c3         1 3VK      -0.087433
      8 C20         -1.6940    -4.2290    -0.9980 c3         1 3VK      -0.087433
      9 C21         -0.1080    -4.1900     0.9660 c3         1 3VK      -0.087433
     10 C22          2.2870    -0.8890    -0.6160 c3         1 3VK       0.019000
     11 C23          3.4950    -0.9020     0.3480 c          1 3VK       0.587100
     12 C25          5.9480    -0.4010     0.5300 c3         1 3VK       0.112000
     13 C27          7.0990     0.0970    -0.3640 c3         1 3VK      -0.071400
     14 C28          8.4490     0.1760     0.3950 c3         1 3VK      -0.301400
     15 C30         11.2340     0.7560     0.4680 c3         1 3VK      -0.335100
     16 C4          -5.1030     1.1940     0.1390 ca         1 3VK      -0.086300
     17 C5          -5.9330     1.2580     1.2790 ca         1 3VK      -0.080000
     18 C6          -6.3220     2.5000     1.8070 ca         1 3VK       0.119500
     19 Cl7         -7.3550     2.5630     3.2290 cl         1 3VK      -0.191500
     20 Cl8         -4.5150     5.1260    -0.6860 cl         1 3VK      -0.191500
     21 C9          -4.6720    -0.1550    -0.4400 c3         1 3VK       0.147800
     22 C10         -3.5380    -0.8130     0.4310 c          1 3VK       0.603100
     23 N11         -5.8740    -1.0190    -0.6550 n7         1 3VK      -0.846400
     24 O12         -3.5120    -0.7920     1.6550 o          1 3VK      -0.572100
     25 N13         -2.5290    -1.4200    -0.2800 ns         1 3VK      -0.499900
     26 O17         -0.3080    -1.1900    -1.7680 o          1 3VK      -0.618100
     27 N24          4.6820    -0.4700    -0.2000 ns         1 3VK      -0.503900
     28 O26          3.4160    -1.2660     1.5160 o          1 3VK      -0.609100
     29 S29          9.8210     0.7580    -0.6320 s6         1 3VK       1.083000
     30 O31         10.0650    -0.2420    -1.6780 o          1 3VK      -0.514000
     31 O32          9.5490     2.1500    -1.0110 o          1 3VK      -0.514000
     32 C33         -5.6370    -2.2930    -1.3570 c3         1 3VK       0.158800
     33 C34         -6.9600    -3.0560    -1.5150 c3         1 3VK      -0.093100
     34 H1          -6.1890     4.6510     1.6140 ha         1 3VK       0.144000
     35 H2          -4.0300     2.3730    -1.3400 ha         1 3VK       0.147500
     36 H3          -1.1610    -1.6100     1.3030 h1         1 3VK       0.090700
     37 H4          -3.5520    -3.6610     0.9730 hc         1 3VK       0.039367
     38 H5          -2.6270    -5.0770     1.4840 hc         1 3VK       0.039367
     39 H6          -2.4360    -3.5400     2.3470 hc         1 3VK       0.039367
     40 H7          -0.8890    -3.9970    -1.7060 hc         1 3VK       0.039367
     41 H8          -1.7610    -5.3210    -0.9190 hc         1 3VK       0.039367
     42 H9          -2.6380    -3.8720    -1.4270 hc         1 3VK       0.039367
     43 H10          0.1520    -3.7250     1.9250 hc         1 3VK       0.039367
     44 H11         -0.2110    -5.2690     1.1350 hc         1 3VK       0.039367
     45 H12          0.7310    -4.0510     0.2750 hc         1 3VK       0.039367
     46 H13          2.1400     0.1380    -0.9750 h1         1 3VK       0.068700
     47 H14          2.5210    -1.5320    -1.4740 h1         1 3VK       0.068700
     48 H15          6.1900    -1.4010     0.9170 h1         1 3VK       0.056200
     49 H16          5.8270     0.2770     1.3850 h1         1 3VK       0.056200
     50 H17          7.1990    -0.5780    -1.2240 hc         1 3VK       0.067700
     51 H18          6.8400     1.0880    -0.7590 hc         1 3VK       0.067700
     52 H19          8.3800     0.8740     1.2370 h1         1 3VK       0.098200
     53 H20          8.7430    -0.8120     0.7660 h1         1 3VK       0.098200
     54 H21         11.3800    -0.2700     0.8220 h1         1 3VK       0.105700
     55 H22         12.0990     1.1030    -0.1060 h1         1 3VK       0.105700
     56 H23         11.0120     1.4350     1.2980 h1         1 3VK       0.105700
     57 H24         -6.2750     0.3430     1.7570 ha         1 3VK       0.147500
     58 H25         -4.2200     0.0460    -1.4210 h1         1 3VK       0.031700
     59 H26         -6.5550    -0.4790    -1.2030 hn         1 3VK       0.420000
     60 H28         -2.5050    -1.2880    -1.2840 hn         1 3VK       0.328500
     61 H29          1.1000    -1.6310     1.0200 hn         1 3VK       0.348500
     62 H30          4.6640    -0.1860    -1.1730 hn         1 3VK       0.322500
     63 H31         -5.2070    -2.1110    -2.3520 h1         1 3VK       0.032700
     64 H32         -4.9330    -2.9210    -0.7960 h1         1 3VK       0.032700
     65 H33         -6.7880    -4.0080    -2.0310 hc         1 3VK       0.040700
     66 H34         -7.4020    -3.2730    -0.5350 hc         1 3VK       0.040700
     67 H35         -7.6800    -2.4740    -2.1020 hc         1 3VK       0.040700
     68 N16          1.0500    -1.3680     0.0400 ns         1 3VK      -0.491900
@<TRIPOS>BOND
     1     1     2 ar  
     2     1    18 ar  
     3     1    34 1   
     4     2     3 ar  
     5     2    20 1   
     6     3    16 ar  
     7     3    35 1   
     8     4     5 1   
     9     4     6 1   
    10     4    25 1   
    11     4    36 1   
    12     5    26 2   
    13     5    68 1   
    14     6     7 1   
    15     6     8 1   
    16     6     9 1   
    17     7    37 1   
    18     7    38 1   
    19     7    39 1   
    20     8    40 1   
    21     8    41 1   
    22     8    42 1   
    23     9    43 1   
    24     9    44 1   
    25     9    45 1   
    26    10    11 1   
    27    10    46 1   
    28    10    47 1   
    29    10    68 1   
    30    11    27 1   
    31    11    28 2   
    32    12    13 1   
    33    12    27 1   
    34    12    48 1   
    35    12    49 1   
    36    13    14 1   
    37    13    50 1   
    38    13    51 1   
    39    14    29 1   
    40    14    52 1   
    41    14    53 1   
    42    15    29 1   
    43    15    54 1   
    44    15    55 1   
    45    15    56 1   
    46    16    17 ar  
    47    16    21 1   
    48    17    18 ar  
    49    17    57 1   
    50    18    19 1   
    51    21    22 1   
    52    21    23 1   
    53    21    58 1   
    54    22    24 2   
    55    22    25 1   
    56    23    32 1   
    57    23    59 1   
    58    25    60 1   
    59    27    62 1   
    60    29    30 2   
    61    29    31 2   
    62    32    33 1   
    63    32    63 1   
    64    32    64 1   
    65    33    65 1   
    66    33    66 1   
    67    33    67 1   
    68    61    68 1   
@<TRIPOS>SUBSTRUCTURE
     1 3VK         1 TEMP              0 ****  ****    0 ROOT
