@<TRIPOS>MOLECULE
3VL
   76    80     1     0     0
SMALL
abcg2


@<TRIPOS>ATOM
      1 C1           4.1180     3.6500    -0.1090 c3         1 3VL      -0.085100
      2 C2           2.6140     3.8900    -0.1510 c3         1 3VL      -0.071400
      3 C3           1.7690     2.6170    -0.0490 c6         1 3VL       0.217000
      4 C4           1.9420     1.9230     1.2980 c6         1 3VL      -0.139400
      5 O1           2.1460     1.7750    -1.1220 oh         1 3VL      -0.673000
      6 C5           0.2620     2.9380    -0.2450 c6         1 3VL      -0.113400
      7 C6          -0.2320     4.0530     0.6590 c          1 3VL       0.595100
      8 O2          -0.5250     3.9060     1.8190 o          1 3VL      -0.480000
      9 O3          -0.3070     5.2090     0.0220 os         1 3VL      -0.437100
     10 C7          -0.7200     6.3510     0.7770 c3         1 3VL       0.149900
     11 C8          -0.6060     1.7270    -0.0130 ca         1 3VL       0.014700
     12 C9          -1.8640     1.7030    -0.6260 ca         1 3VL      -0.110000
     13 C10         -2.7070     0.6310    -0.4560 ca         1 3VL      -0.072600
     14 C11         -4.0230     0.6300    -1.1390 c          1 3VL       0.585300
     15 O4          -4.3790     1.5770    -1.8100 o          1 3VL      -0.502100
     16 C12         -4.8850    -0.5660    -0.9830 ca         1 3VL      -0.080600
     17 C13         -6.0960    -0.6070    -1.6440 ca         1 3VL      -0.111000
     18 C14         -6.9130    -1.7290    -1.5110 ca         1 3VL      -0.047000
     19 C15         -6.5320    -2.7940    -0.7270 ca         1 3VL      -0.152000
     20 C16         -5.3090    -2.7680    -0.0440 ca         1 3VL       0.223100
     21 O5          -4.9980    -3.8210     0.7000 oh         1 3VL      -0.535100
     22 C17         -4.4720    -1.6430    -0.1750 ca         1 3VL      -0.259600
     23 C18         -3.1900    -1.6050     0.5180 c          1 3VL       0.636300
     24 O6          -2.8430    -2.5550     1.2430 o          1 3VL      -0.628100
     25 C19         -2.3160    -0.4550     0.3480 ca         1 3VL      -0.266600
     26 C20         -1.0550    -0.4270     0.9680 ca         1 3VL       0.248100
     27 O7          -0.6240    -1.4080     1.7430 oh         1 3VL      -0.539100
     28 C21         -0.1930     0.6730     0.7790 ca         1 3VL      -0.114300
     29 C22          1.1930     0.5990     1.3730 c6         1 3VL       0.233600
     30 O8           1.8530    -0.4230     0.6240 os         1 3VL      -0.511000
     31 C23          2.6950    -1.2970     1.3370 c6         1 3VL       0.389300
     32 C24          2.8590    -2.5570     0.5070 c6         1 3VL      -0.093400
     33 O9           3.9170    -0.7050     1.6570 os         1 3VL      -0.467000
     34 C25          4.7730    -0.4440     0.5530 c6         1 3VL       0.132300
     35 C26          6.0320     0.1910     1.1090 c3         1 3VL      -0.093100
     36 C27          5.0550    -1.7100    -0.2620 c6         1 3VL       0.145300
     37 O10          5.7600    -2.6810     0.4720 oh         1 3VL      -0.692000
     38 C28          3.7300    -2.3160    -0.7270 c6         1 3VL       0.196500
     39 N1           3.8980    -3.5410    -1.5010 n3         1 3VL      -0.701600
     40 C29          2.6470    -3.9730    -2.0940 c3         1 3VL       0.150600
     41 C30          4.9120    -3.4380    -2.5310 c3         1 3VL       0.150600
     42 H1           4.6490     4.5870    -0.2750 hc         1 3VL       0.036033
     43 H2           4.4480     3.2630     0.8560 hc         1 3VL       0.036033
     44 H3           4.4370     2.9480    -0.8780 hc         1 3VL       0.036033
     45 H4           2.3480     4.5740     0.6580 hc         1 3VL       0.050200
     46 H5           2.3560     4.4010    -1.0830 hc         1 3VL       0.050200
     47 H6           2.9950     1.7410     1.5120 hc         1 3VL       0.077700
     48 H7           1.5770     2.5720     2.0940 hc         1 3VL       0.077700
     49 H8           2.1170     0.8520    -0.8410 ho         1 3VL       0.475000
     50 H9           0.1340     3.2600    -1.2820 hc         1 3VL       0.103700
     51 H10         -1.7310     6.2250     1.1640 h1         1 3VL       0.050700
     52 H11         -0.0380     6.5480     1.6030 h1         1 3VL       0.050700
     53 H12         -0.7000     7.1870     0.0840 h1         1 3VL       0.050700
     54 H13         -2.1660     2.5340    -1.2510 ha         1 3VL       0.144000
     55 H14         -6.4090     0.2220    -2.2640 ha         1 3VL       0.142000
     56 H15         -7.8610    -1.7650    -2.0310 ha         1 3VL       0.124000
     57 H16         -7.1700    -3.6620    -0.6260 ha         1 3VL       0.138000
     58 H17         -4.1210    -3.6580     1.1090 ho         1 3VL       0.517000
     59 H18         -1.3230    -2.0990     1.7890 ho         1 3VL       0.521000
     60 H19          1.1270     0.2970     2.4240 h1         1 3VL       0.072700
     61 H20          2.2290    -1.5390     2.2990 h2         1 3VL       0.079700
     62 H21          3.3200    -3.3270     1.1280 hc         1 3VL       0.074700
     63 H22          1.8630    -2.9120     0.2440 hc         1 3VL       0.074700
     64 H23          4.3010     0.2760    -0.1300 h1         1 3VL       0.048700
     65 H24          6.5150    -0.4480     1.8500 hc         1 3VL       0.044700
     66 H25          6.7450     0.3870     0.3060 hc         1 3VL       0.044700
     67 H26          5.8050     1.1440     1.5870 hc         1 3VL       0.044700
     68 H27          5.6290    -1.3780    -1.1380 h1         1 3VL       0.031700
     69 H28          6.6590    -2.3690     0.6140 ho         1 3VL       0.498000
     70 H29          3.2490    -1.5420    -1.3540 h1         1 3VL       0.032700
     71 H31          2.2270    -3.2410    -2.8010 h1         1 3VL       0.030367
     72 H32          2.8020    -4.9060    -2.6370 h1         1 3VL       0.030367
     73 H33          1.8920    -4.1690    -1.3340 h1         1 3VL       0.030367
     74 H34          5.9050    -3.3130    -2.1020 h1         1 3VL       0.030367
     75 H35          4.9290    -4.3650    -3.1060 h1         1 3VL       0.030367
     76 H36          4.7390    -2.6150    -3.2420 h1         1 3VL       0.030367
@<TRIPOS>BOND
     1     1     2 1   
     2     1    42 1   
     3     1    43 1   
     4     1    44 1   
     5     2     3 1   
     6     2    45 1   
     7     2    46 1   
     8     3     4 1   
     9     3     5 1   
    10     3     6 1   
    11     4    29 1   
    12     4    47 1   
    13     4    48 1   
    14     5    49 1   
    15     6     7 1   
    16     6    11 1   
    17     6    50 1   
    18     7     8 2   
    19     7     9 1   
    20     9    10 1   
    21    10    51 1   
    22    10    52 1   
    23    10    53 1   
    24    11    12 ar  
    25    11    28 ar  
    26    12    13 ar  
    27    12    54 1   
    28    13    14 1   
    29    13    25 ar  
    30    14    15 2   
    31    14    16 1   
    32    16    17 ar  
    33    16    22 ar  
    34    17    18 ar  
    35    17    55 1   
    36    18    19 ar  
    37    18    56 1   
    38    19    20 ar  
    39    19    57 1   
    40    20    21 1   
    41    20    22 ar  
    42    21    58 1   
    43    22    23 1   
    44    23    24 2   
    45    23    25 1   
    46    25    26 ar  
    47    26    27 1   
    48    26    28 ar  
    49    27    59 1   
    50    28    29 1   
    51    29    30 1   
    52    29    60 1   
    53    30    31 1   
    54    31    32 1   
    55    31    33 1   
    56    31    61 1   
    57    32    38 1   
    58    32    62 1   
    59    32    63 1   
    60    33    34 1   
    61    34    35 1   
    62    34    36 1   
    63    34    64 1   
    64    35    65 1   
    65    35    66 1   
    66    35    67 1   
    67    36    37 1   
    68    36    38 1   
    69    36    68 1   
    70    37    69 1   
    71    38    39 1   
    72    38    70 1   
    73    39    40 1   
    74    39    41 1   
    75    40    71 1   
    76    40    72 1   
    77    40    73 1   
    78    41    74 1   
    79    41    75 1   
    80    41    76 1   
@<TRIPOS>SUBSTRUCTURE
     1 3VL         1 TEMP              0 ****  ****    0 ROOT
