@<TRIPOS>MOLECULE
3VL
   76    80     1     0     0
SMALL
No Charge or Current Charge


@<TRIPOS>ATOM
      1 C1           4.2140     3.6260     0.0510 c3         1 3VL      -0.085100
      2 C2           2.6830     3.8170    -0.0790 c3         1 3VL      -0.071400
      3 C3           1.7990     2.5190    -0.0420 c6         1 3VL       0.217000
      4 C4           1.9160     1.7710     1.3120 c6         1 3VL      -0.139400
      5 O1           2.2660     1.6500    -1.0720 oh         1 3VL      -0.673000
      6 C5           0.2880     2.8060    -0.3050 c6         1 3VL      -0.113400
      7 C6          -0.2290     4.0460     0.4500 c          1 3VL       0.595100
      8 O2          -0.8450     3.9680     1.5050 o          1 3VL      -0.480000
      9 O3          -0.0970     5.2120    -0.2620 os         1 3VL      -0.437100
     10 C7          -0.6030     6.4260     0.3220 c3         1 3VL       0.149900
     11 C8          -0.6470     1.6080    -0.0700 ca         1 3VL       0.014700
     12 C9          -1.9370     1.6410    -0.6200 ca         1 3VL      -0.110000
     13 C10         -2.8560     0.5920    -0.4080 ca         1 3VL      -0.072600
     14 C11         -4.2360     0.6830    -1.0250 c          1 3VL       0.585300
     15 O4          -4.5650     1.6490    -1.7070 o          1 3VL      -0.502100
     16 C12         -5.1970    -0.4580    -0.7730 ca         1 3VL      -0.080600
     17 C13         -6.4950    -0.4090    -1.3330 ca         1 3VL      -0.111000
     18 C14         -7.4110    -1.4480    -1.1200 ca         1 3VL      -0.047000
     19 C15         -7.0400    -2.5510    -0.3410 ca         1 3VL      -0.152000
     20 C16         -5.7600    -2.6190     0.2230 ca         1 3VL       0.223100
     21 O5          -5.4450    -3.7110     0.9720 oh         1 3VL      -0.535100
     22 C17         -4.8220    -1.5780     0.0170 ca         1 3VL      -0.259600
     23 C18         -3.4420    -1.6480     0.6240 c          1 3VL       0.636300
     24 O6          -3.1160    -2.6160     1.3070 o          1 3VL      -0.628100
     25 C19         -2.4680    -0.5190     0.3830 ca         1 3VL      -0.266600
     26 C20         -1.1630    -0.5520     0.9350 ca         1 3VL       0.248100
     27 O7          -0.7770    -1.6130     1.7020 oh         1 3VL      -0.539100
     28 C21         -0.2500     0.5010     0.7090 ca         1 3VL      -0.114300
     29 C22          1.1730     0.4130     1.2800 c6         1 3VL       0.233600
     30 O8           1.9030    -0.5220     0.4500 os         1 3VL      -0.511000
     31 C23          2.7050    -1.4860     1.1580 c6         1 3VL       0.389300
     32 C24          3.0380    -2.6790     0.2320 c6         1 3VL      -0.093400
     33 O9           3.9120    -0.8650     1.6490 os         1 3VL      -0.467000
     34 C25          4.8180    -0.4100     0.6210 c6         1 3VL       0.132300
     35 C26          5.9530     0.3730     1.3310 c3         1 3VL      -0.093100
     36 C27          5.3240    -1.6270    -0.2060 c6         1 3VL       0.145300
     37 O10          6.0440    -2.5490     0.6450 oh         1 3VL      -0.692000
     38 C28          4.0710    -2.3120    -0.8810 c6         1 3VL       0.196500
     39 N1           4.4200    -3.5000    -1.7490 n3         1 3VL      -0.701600
     40 C29          3.2470    -4.1540    -2.3820 c3         1 3VL       0.150600
     41 C30          5.4620    -3.2050    -2.7640 c3         1 3VL       0.150600
     42 H1           4.7250     4.5870    -0.0840 hc         1 3VL       0.036033
     43 H2           4.4820     3.2450     1.0420 hc         1 3VL       0.036033
     44 H3           4.5960     2.9330    -0.7070 hc         1 3VL       0.036033
     45 H4           2.3780     4.5020     0.7220 hc         1 3VL       0.050200
     46 H5           2.4960     4.3500    -1.0200 hc         1 3VL       0.050200
     47 H6           2.9630     1.6070     1.5870 hc         1 3VL       0.077700
     48 H7           1.4950     2.3910     2.1150 hc         1 3VL       0.077700
     49 H8           2.1470     0.7430    -0.6910 ho         1 3VL       0.475000
     50 H9           0.2600     3.0990    -1.3630 hc         1 3VL       0.103700
     51 H10         -1.6840     6.3560     0.4980 h1         1 3VL       0.050700
     52 H11         -0.1070     6.6370     1.2780 h1         1 3VL       0.050700
     53 H12         -0.4230     7.2760    -0.3490 h1         1 3VL       0.050700
     54 H13         -2.2300     2.5020    -1.2180 ha         1 3VL       0.144000
     55 H14         -6.8010     0.4410    -1.9410 ha         1 3VL       0.142000
     56 H15         -8.4060    -1.3980    -1.5570 ha         1 3VL       0.124000
     57 H16         -7.7480    -3.3590    -0.1740 ha         1 3VL       0.138000
     58 H17         -4.5110    -3.5690     1.2750 ho         1 3VL       0.517000
     59 H18         -1.5580    -2.2260     1.7260 ho         1 3VL       0.521000
     60 H19          1.1160     0.0270     2.3100 h1         1 3VL       0.072700
     61 H20          2.1260    -1.8760     2.0100 h2         1 3VL       0.079700
     62 H21          3.4140    -3.5140     0.8370 hc         1 3VL       0.074700
     63 H22          2.0940    -3.0200    -0.2100 hc         1 3VL       0.074700
     64 H23          4.2960     0.2900    -0.0450 h1         1 3VL       0.048700
     65 H24          6.5060    -0.2580     2.0360 hc         1 3VL       0.044700
     66 H25          6.6690     0.7700     0.6020 hc         1 3VL       0.044700
     67 H26          5.5490     1.2220     1.8950 hc         1 3VL       0.044700
     68 H27          5.9910    -1.2410    -0.9900 h1         1 3VL       0.031700
     69 H28          5.5560    -2.5480     1.4990 ho         1 3VL       0.498000
     70 H29          3.6000    -1.5500    -1.5210 h1         1 3VL       0.032700
     71 H31          2.6720    -3.4330    -2.9800 h1         1 3VL       0.030367
     72 H32          3.5670    -4.9680    -3.0460 h1         1 3VL       0.030367
     73 H33          2.5800    -4.5980    -1.6330 h1         1 3VL       0.030367
     74 H34          6.4130    -2.9250    -2.2940 h1         1 3VL       0.030367
     75 H35          5.6610    -4.0890    -3.3860 h1         1 3VL       0.030367
     76 H36          5.1450    -2.3870    -3.4250 h1         1 3VL       0.030367
@<TRIPOS>BOND
     1     1     2 1   
     2     1    42 1   
     3     1    43 1   
     4     1    44 1   
     5     2     3 1   
     6     2    45 1   
     7     2    46 1   
     8     3     4 1   
     9     3     5 1   
    10     3     6 1   
    11     4    29 1   
    12     4    47 1   
    13     4    48 1   
    14     5    49 1   
    15     6     7 1   
    16     6    11 1   
    17     6    50 1   
    18     7     8 2   
    19     7     9 1   
    20     9    10 1   
    21    10    51 1   
    22    10    52 1   
    23    10    53 1   
    24    11    12 ar  
    25    11    28 ar  
    26    12    13 ar  
    27    12    54 1   
    28    13    14 1   
    29    13    25 ar  
    30    14    15 2   
    31    14    16 1   
    32    16    17 ar  
    33    16    22 ar  
    34    17    18 ar  
    35    17    55 1   
    36    18    19 ar  
    37    18    56 1   
    38    19    20 ar  
    39    19    57 1   
    40    20    21 1   
    41    20    22 ar  
    42    21    58 1   
    43    22    23 1   
    44    23    24 2   
    45    23    25 1   
    46    25    26 ar  
    47    26    27 1   
    48    26    28 ar  
    49    27    59 1   
    50    28    29 1   
    51    29    30 1   
    52    29    60 1   
    53    30    31 1   
    54    31    32 1   
    55    31    33 1   
    56    31    61 1   
    57    32    38 1   
    58    32    62 1   
    59    32    63 1   
    60    33    34 1   
    61    34    35 1   
    62    34    36 1   
    63    34    64 1   
    64    35    65 1   
    65    35    66 1   
    66    35    67 1   
    67    36    37 1   
    68    36    38 1   
    69    36    68 1   
    70    37    69 1   
    71    38    39 1   
    72    38    70 1   
    73    39    40 1   
    74    39    41 1   
    75    40    71 1   
    76    40    72 1   
    77    40    73 1   
    78    41    74 1   
    79    41    75 1   
    80    41    76 1   
@<TRIPOS>SUBSTRUCTURE
     1 3VL         1 TEMP              0 ****  ****    0 ROOT
