@<TRIPOS>MOLECULE
3VM
   67    71     1     0     0
SMALL
No Charge or Current Charge


@<TRIPOS>ATOM
      1 C13          4.4580    -0.0460     0.3540 cp         1 3VM      -0.025000
      2 C18          8.3710     0.0410    -1.1180 cc         1 3VM       0.138900
      3 C17          0.6870     0.3480     0.9230 ca         1 3VM       0.328300
      4 C16          6.8880     0.2290     0.5070 ca         1 3VM      -0.036000
      5 C15         -2.1620     2.7810    -0.2400 ca         1 3VM      -0.076300
      6 C19         -2.6100    -0.5240    -0.5450 c          1 3VM       0.606100
      7 C20         -5.1660    -0.6470    -0.2170 c6         1 3VM      -0.064400
      8 C21         -3.7900    -2.8230    -0.5200 c6         1 3VM      -0.064400
      9 C22         -6.3230    -1.4830     0.3870 c6         1 3VM      -0.072400
     10 C23         -4.9640    -3.6270     0.0920 c6         1 3VM      -0.072400
     11 C24         -3.8000    -1.3540    -0.0220 c6         1 3VM      -0.139700
     12 C11          1.6220    -0.4500     2.8920 ca         1 3VM       0.339900
     13 C12          6.9890    -0.0400    -0.8380 ca         1 3VM      -0.204000
     14 C1          -4.4570     3.6870    -1.6050 ca         1 3VM      -0.107000
     15 C2          -3.2200     3.6300    -2.2690 ca         1 3VM      -0.108000
     16 C3          -4.5490     3.2940    -0.2590 ca         1 3VM      -0.108000
     17 C4           5.8830    -0.3190    -1.6490 ca         1 3VM      -0.035000
     18 C5           4.6130    -0.3190    -1.0390 ca         1 3VM      -0.141000
     19 C6          -2.0760     3.1780    -1.5880 ca         1 3VM      -0.100000
     20 C7          -3.4050     2.8440     0.4220 ca         1 3VM      -0.100000
     21 C8           2.9080    -0.4620     2.3310 ca         1 3VM      -0.155000
     22 C9           5.6260     0.2290     1.1220 ca         1 3VM      -0.076000
     23 C10          1.9450     0.3620     0.2910 ca         1 3VM      -0.140000
     24 C14          3.1030    -0.0490     0.9920 cp         1 3VM       0.013000
     25 C25         -6.3360    -2.9400    -0.1680 c6         1 3VM      -0.062700
     26 C26         -0.9220     2.2770     0.4930 c3         1 3VM      -0.044100
     27 C28         -0.5700     0.8040     0.1660 c3         1 3VM       0.068400
     28 N29          0.5250    -0.0530     2.2090 nb         1 3VM      -0.683000
     29 N30          9.0260     0.3540     0.0590 na         1 3VM      -0.035500
     30 N31          8.1220     0.4840     1.1250 nc         1 3VM      -0.288400
     31 N32          8.9890    -0.1460    -2.3220 nv         1 3VM      -0.915000
     32 N34         -1.7220    -0.0840     0.4110 ns         1 3VM      -0.498900
     33 O35         -2.4640    -0.2820    -1.7360 o          1 3VM      -0.606100
     34 H1          -5.3490    -0.4860    -1.2890 hc         1 3VM       0.052950
     35 H2          -5.1450     0.3480     0.2480 hc         1 3VM       0.052950
     36 H3          -2.8360    -3.3030    -0.2630 hc         1 3VM       0.052950
     37 H4          -3.8640    -2.8420    -1.6170 hc         1 3VM       0.052950
     38 H5          -6.2270    -1.5030     1.4820 hc         1 3VM       0.037700
     39 H6          -7.2750    -0.9800     0.1690 hc         1 3VM       0.037700
     40 H7          -4.9670    -4.6420    -0.3300 hc         1 3VM       0.037700
     41 H8          -4.8050    -3.7420     1.1730 hc         1 3VM       0.037700
     42 H9          -3.6540    -1.4120     1.0670 hc         1 3VM       0.050700
     43 H10          1.4630    -0.7700     3.9210 h4         1 3VM       0.019100
     44 H13         -5.3430     4.0350    -2.1320 ha         1 3VM       0.110000
     45 H14         -3.1480     3.9330    -3.3110 ha         1 3VM       0.110000
     46 H15         -5.5060     3.3370     0.2560 ha         1 3VM       0.110000
     47 H16          5.9960    -0.5300    -2.7100 ha         1 3VM       0.110000
     48 H17          3.7430    -0.5470    -1.6490 ha         1 3VM       0.117000
     49 H18         -1.1230     3.1310    -2.1110 ha         1 3VM       0.107500
     50 H19         -3.4870     2.5360     1.4620 ha         1 3VM       0.107500
     51 H20          3.7410    -0.8060     2.9350 ha         1 3VM       0.129000
     52 H21          5.5510     0.4550     2.1820 ha         1 3VM       0.128000
     53 H22          2.0210     0.7090    -0.7350 ha         1 3VM       0.130000
     54 H23         -6.5030    -2.9020    -1.2540 hc         1 3VM       0.066700
     55 H24         -0.0620     2.9090     0.2420 hc         1 3VM       0.056700
     56 H25         -1.0610     2.3760     1.5760 hc         1 3VM       0.056700
     57 H26         -0.3340     0.7570    -0.9060 h1         1 3VM       0.088700
     58 H27         10.0230     0.4830     0.1860 hn         1 3VM       0.368000
     59 H28          8.4510    -0.4290    -3.1390 hn         1 3VM       0.460500
     60 H29         10.0040    -0.1280    -2.4080 hn         1 3VM       0.460500
     61 H30         -9.5440    -3.8610     0.5850 hn         1 3VM       0.390500
     62 H31         -8.9590    -2.3580     0.5100 hn         1 3VM       0.390500
     63 H33         -1.8970    -0.3710     1.3670 hn         1 3VM       0.326500
     64 C27         -7.4970    -3.7930     0.4250 c3         1 3VM       0.153800
     65 N33         -8.8450    -3.2890     0.0950 n8         1 3VM      -0.995200
     66 H11         -7.4160    -4.8200     0.0420 h1         1 3VM       0.025200
     67 H12         -7.3950    -3.8280     1.5190 h1         1 3VM       0.025200
@<TRIPOS>BOND
     1     1    18 ar  
     2     1    22 ar  
     3     1    24 1   
     4     2    13 2   
     5     2    29 1   
     6     2    31 1   
     7     3    23 ar  
     8     3    27 1   
     9     3    28 ar  
    10     4    13 ar  
    11     4    22 ar  
    12     4    30 2   
    13     5    19 ar  
    14     5    20 ar  
    15     5    26 1   
    16     6    11 1   
    17     6    32 1   
    18     6    33 2   
    19     7     9 1   
    20     7    11 1   
    21     7    34 1   
    22     7    35 1   
    23     8    10 1   
    24     8    11 1   
    25     8    36 1   
    26     8    37 1   
    27     9    25 1   
    28     9    38 1   
    29     9    39 1   
    30    10    25 1   
    31    10    40 1   
    32    10    41 1   
    33    11    42 1   
    34    12    21 ar  
    35    12    28 ar  
    36    12    43 1   
    37    13    17 ar  
    38    14    15 ar  
    39    14    16 ar  
    40    14    44 1   
    41    15    19 ar  
    42    15    45 1   
    43    16    20 ar  
    44    16    46 1   
    45    17    18 ar  
    46    17    47 1   
    47    18    48 1   
    48    19    49 1   
    49    20    50 1   
    50    21    24 ar  
    51    21    51 1   
    52    22    52 1   
    53    23    24 ar  
    54    23    53 1   
    55    25    54 1   
    56    25    64 1   
    57    26    27 1   
    58    26    55 1   
    59    26    56 1   
    60    27    32 1   
    61    27    57 1   
    62    29    30 1   
    63    29    58 1   
    64    31    59 1   
    65    31    60 1   
    66    32    63 1   
    67    61    65 1   
    68    62    65 1   
    69    64    65 1   
    70    64    66 1   
    71    64    67 1   
@<TRIPOS>SUBSTRUCTURE
     1 3VM         1 TEMP              0 ****  ****    0 ROOT
