@<TRIPOS>MOLECULE
3VM
   67    71     1     0     0
SMALL
abcg2


@<TRIPOS>ATOM
      1 C13          4.3350    -0.0400     0.4240 cp         1 3VM      -0.025000
      2 C18          8.1860    -0.0630    -1.1060 cc         1 3VM       0.138900
      3 C17          0.6260     0.3950     0.9160 ca         1 3VM       0.328300
      4 C16          6.7030     0.3310     0.5100 ca         1 3VM      -0.036000
      5 C15         -2.1380     2.7690    -0.2970 ca         1 3VM      -0.076300
      6 C19         -2.4920    -0.6330    -0.4950 c          1 3VM       0.606100
      7 C20         -4.8920    -0.7100     0.2020 c6         1 3VM      -0.064400
      8 C21         -3.8260    -2.7320    -0.8470 c6         1 3VM      -0.064400
      9 C22         -6.0380    -1.5800     0.7060 c6         1 3VM      -0.072400
     10 C23         -4.9730    -3.5930    -0.3300 c6         1 3VM      -0.072400
     11 C24         -3.5970    -1.5190     0.0520 c6         1 3VM      -0.139700
     12 C11          1.5200    -0.2290     2.9130 ca         1 3VM       0.339900
     13 C12          6.8160    -0.1570    -0.8220 ca         1 3VM      -0.204000
     14 C1          -4.3500     3.6050    -1.7950 ca         1 3VM      -0.107000
     15 C2          -3.0760     3.6380    -2.3500 ca         1 3VM      -0.108000
     16 C3          -4.5170     3.1600    -0.4910 ca         1 3VM      -0.108000
     17 C4           5.6820    -0.5900    -1.5340 ca         1 3VM      -0.035000
     18 C5           4.4650    -0.5240    -0.9160 ca         1 3VM      -0.141000
     19 C6          -1.9830     3.2210    -1.6050 ca         1 3VM      -0.100000
     20 C7          -3.4170     2.7470     0.2510 ca         1 3VM      -0.100000
     21 C8           2.8000    -0.2900     2.3890 ca         1 3VM      -0.155000
     22 C9           5.4330     0.3800     1.1320 ca         1 3VM      -0.076000
     23 C10          1.8690     0.3590     0.3010 ca         1 3VM      -0.140000
     24 C14          2.9960     0.0110     1.0420 cp         1 3VM       0.013000
     25 C25         -6.2710    -2.8010    -0.1810 c6         1 3VM      -0.062700
     26 C26         -0.9560     2.2780     0.4850 c3         1 3VM      -0.044100
     27 C28         -0.6050     0.8160     0.1480 c3         1 3VM       0.068400
     28 N29          0.4520     0.1070     2.2010 nb         1 3VM      -0.683000
     29 N30          8.7370     0.4400     0.0030 na         1 3VM      -0.035500
     30 N31          7.8780     0.6970     1.0100 nc         1 3VM      -0.288400
     31 N32          8.8940    -0.4490    -2.2060 nv         1 3VM      -0.915000
     32 N34         -1.6970    -0.0790     0.4400 ns         1 3VM      -0.498900
     33 O35         -2.3490    -0.4350    -1.6920 o          1 3VM      -0.606100
     34 H1          -5.1580    -0.2730    -0.7660 hc         1 3VM       0.052950
     35 H2          -4.7340     0.1250     0.8880 hc         1 3VM       0.052950
     36 H3          -2.9130    -3.3290    -0.9110 hc         1 3VM       0.052950
     37 H4          -4.0530    -2.3920    -1.8600 hc         1 3VM       0.052950
     38 H5          -5.8200    -1.9140     1.7280 hc         1 3VM       0.037700
     39 H6          -6.9440    -0.9710     0.7620 hc         1 3VM       0.037700
     40 H7          -5.1290    -4.4370    -1.0080 hc         1 3VM       0.037700
     41 H8          -4.6980    -4.0230     0.6400 hc         1 3VM       0.037700
     42 H9          -3.3100    -1.8760     1.0490 hc         1 3VM       0.050700
     43 H10          1.3500    -0.4680     3.9560 h4         1 3VM       0.019100
     44 H13         -5.2060     3.9290    -2.3730 ha         1 3VM       0.110000
     45 H14         -2.9340     3.9900    -3.3640 ha         1 3VM       0.110000
     46 H15         -5.5040     3.1330    -0.0480 ha         1 3VM       0.110000
     47 H16          5.7620    -0.9740    -2.5430 ha         1 3VM       0.110000
     48 H17          3.5820    -0.8710    -1.4370 ha         1 3VM       0.117000
     49 H18         -0.9930     3.2510    -2.0460 ha         1 3VM       0.107500
     50 H19         -3.5570     2.4090     1.2700 ha         1 3VM       0.107500
     51 H20          3.6230    -0.5940     3.0220 ha         1 3VM       0.129000
     52 H21          5.3380     0.7670     2.1390 ha         1 3VM       0.128000
     53 H22          1.9520     0.6140    -0.7480 ha         1 3VM       0.130000
     54 H23         -6.5720    -2.4460    -1.1760 hc         1 3VM       0.066700
     55 H24         -0.0790     2.8960     0.2720 hc         1 3VM       0.056700
     56 H25         -1.1470     2.3560     1.5580 hc         1 3VM       0.056700
     57 H26         -0.4000     0.7430    -0.9200 h1         1 3VM       0.088700
     58 H27          9.7190     0.6300     0.1400 hn         1 3VM       0.368000
     59 H28          8.3490    -0.5200    -3.0500 hn         1 3VM       0.460500
     60 H29          9.7630     0.0370    -2.3700 hn         1 3VM       0.460500
     61 H30         -9.3930    -3.6930     0.6080 hn         1 3VM       0.390500
     62 H31         -8.6760    -2.3870     1.2080 hn         1 3VM       0.390500
     63 H33         -1.8650    -0.2900     1.4120 hn         1 3VM       0.326500
     64 C27         -7.3820    -3.7010     0.3470 c3         1 3VM       0.153800
     65 N33         -8.6660    -3.0170     0.4150 n8         1 3VM      -0.995200
     66 H11         -7.4900    -4.5500    -0.3350 h1         1 3VM       0.025200
     67 H12         -7.0610    -4.1230     1.3120 h1         1 3VM       0.025200
@<TRIPOS>BOND
     1     1    18 ar  
     2     1    22 ar  
     3     1    24 1   
     4     2    13 2   
     5     2    29 1   
     6     2    31 1   
     7     3    23 ar  
     8     3    27 1   
     9     3    28 ar  
    10     4    13 ar  
    11     4    22 ar  
    12     4    30 2   
    13     5    19 ar  
    14     5    20 ar  
    15     5    26 1   
    16     6    11 1   
    17     6    32 1   
    18     6    33 2   
    19     7     9 1   
    20     7    11 1   
    21     7    34 1   
    22     7    35 1   
    23     8    10 1   
    24     8    11 1   
    25     8    36 1   
    26     8    37 1   
    27     9    25 1   
    28     9    38 1   
    29     9    39 1   
    30    10    25 1   
    31    10    40 1   
    32    10    41 1   
    33    11    42 1   
    34    12    21 ar  
    35    12    28 ar  
    36    12    43 1   
    37    13    17 ar  
    38    14    15 ar  
    39    14    16 ar  
    40    14    44 1   
    41    15    19 ar  
    42    15    45 1   
    43    16    20 ar  
    44    16    46 1   
    45    17    18 ar  
    46    17    47 1   
    47    18    48 1   
    48    19    49 1   
    49    20    50 1   
    50    21    24 ar  
    51    21    51 1   
    52    22    52 1   
    53    23    24 ar  
    54    23    53 1   
    55    25    54 1   
    56    25    64 1   
    57    26    27 1   
    58    26    55 1   
    59    26    56 1   
    60    27    32 1   
    61    27    57 1   
    62    29    30 1   
    63    29    58 1   
    64    31    59 1   
    65    31    60 1   
    66    32    63 1   
    67    61    65 1   
    68    62    65 1   
    69    64    65 1   
    70    64    66 1   
    71    64    67 1   
@<TRIPOS>SUBSTRUCTURE
     1 3VM         1 TEMP              0 ****  ****    0 ROOT
