@<TRIPOS>MOLECULE
3VN
   50    49     1     0     0
SMALL
bcc


@<TRIPOS>ATOM
      1 N01          1.8270     0.9130    -1.7460 n8         1 3VN      -0.891800
      2 C02          1.8900     0.3970    -0.3820 c3         1 3VN       0.036700
      3 C03          1.9750     1.5710     0.6280 c          1 3VN       0.935600
      4 O04          1.8650     1.2660     1.8330 o          1 3VN      -0.844800
      5 O05          2.1780     2.7170     0.1770 o          1 3VN      -0.844800
      6 C06          3.1250    -0.5020    -0.1620 c3         1 3VN      -0.051400
      7 C07          4.4720     0.1870    -0.3480 c3         1 3VN      -0.072900
      8 C08          5.6420    -0.7870    -0.2890 c3         1 3VN      -0.076900
      9 C09          6.9890    -0.0950    -0.4290 c3         1 3VN       0.141300
     10 N10          8.0820    -1.0580    -0.3850 n8         1 3VN      -0.889300
     11 C11          0.6280    -0.4410    -0.1260 c3         1 3VN      -0.048400
     12 C12         -0.6670     0.3570    -0.1720 c3         1 3VN      -0.048400
     13 C13         -1.9520    -0.4850    -0.3240 c3         1 3VN       0.036700
     14 N14         -1.9680    -1.2350    -1.5770 n8         1 3VN      -0.891800
     15 C15         -3.1530     0.4710    -0.3090 c3         1 3VN      -0.051400
     16 C16         -4.5130    -0.2080    -0.3790 c3         1 3VN      -0.072900
     17 C17         -5.6700     0.7820    -0.4120 c3         1 3VN      -0.076900
     18 C18         -7.0270     0.0990    -0.4930 c3         1 3VN       0.141300
     19 N19         -8.1090     1.0730    -0.5150 n8         1 3VN      -0.889300
     20 C20         -2.0230    -1.4610     0.8800 c          1 3VN       0.935600
     21 O21         -2.2500    -0.9460     1.9940 o          1 3VN      -0.844800
     22 O22         -1.8140    -2.6720     0.6620 o          1 3VN      -0.844800
     23 H1           2.4700     1.6880    -1.8410 hn         1 3VN       0.320800
     24 H2           2.1260     0.1950    -2.3950 hn         1 3VN       0.320800
     25 H5           3.0850    -0.9380     0.8410 hc         1 3VN       0.023700
     26 H6           4.4920     0.7120    -1.3080 hc         1 3VN       0.045700
     27 H7           5.6210    -1.3410     0.6550 hc         1 3VN       0.033200
     28 H8           5.5320    -1.5310    -1.0860 hc         1 3VN       0.033200
     29 H9           6.9810     0.5160    -1.3440 h1         1 3VN       0.024700
     30 H10          7.1170     0.6050     0.4020 h1         1 3VN       0.024700
     31 H11          8.0390    -1.6430    -1.2100 hn         1 3VN       0.318300
     32 H12          8.9660    -0.5690    -0.4470 hn         1 3VN       0.318300
     33 H14          0.6000    -1.2360    -0.8820 hc         1 3VN       0.037950
     34 H15         -0.7440     0.9680     0.7310 hc         1 3VN       0.037950
     35 H16         -1.4780    -0.7110    -2.2930 hn         1 3VN       0.320800
     36 H17         -1.4600    -2.0990    -1.4440 hn         1 3VN       0.320800
     37 H19         -3.1050     1.0950     0.5870 hc         1 3VN       0.023700
     38 H20         -3.0530     1.1570    -1.1610 hc         1 3VN       0.023700
     39 H21         -4.5520    -0.8490    -1.2640 hc         1 3VN       0.045700
     40 H22         -5.6360     1.4130     0.4840 hc         1 3VN       0.033200
     41 H23         -7.0740    -0.4870    -1.4160 h1         1 3VN       0.024700
     42 H24         -7.1080    -0.6260     0.3320 h1         1 3VN       0.024700
     43 H25         -8.9960     0.5900    -0.5760 hn         1 3VN       0.318300
     44 H26         -8.1300     1.5600     0.3730 hn         1 3VN       0.318300
     45 H3           3.0600    -1.3460    -0.8620 hc         1 3VN       0.023700
     46 H29          4.6060     0.9530     0.4220 hc         1 3VN       0.045700
     47 H13          0.7170    -0.9410     0.8410 hc         1 3VN       0.037950
     48 H30         -0.6210     1.0530    -1.0170 hc         1 3VN       0.037950
     49 H18         -4.6360    -0.8710     0.4840 hc         1 3VN       0.045700
     50 H31         -5.5590     1.4580    -1.2670 hc         1 3VN       0.033200
@<TRIPOS>BOND
     1     1     2 1   
     2     1    23 1   
     3     1    24 1   
     4     2     3 1   
     5     2     6 1   
     6     2    11 1   
     7     3     4 1   
     8     3     5 1   
     9     6     7 1   
    10     6    25 1   
    11     6    45 1   
    12     7     8 1   
    13     7    26 1   
    14     7    46 1   
    15     8     9 1   
    16     8    27 1   
    17     8    28 1   
    18     9    10 1   
    19     9    29 1   
    20     9    30 1   
    21    10    31 1   
    22    10    32 1   
    23    11    12 1   
    24    11    33 1   
    25    11    47 1   
    26    12    13 1   
    27    12    34 1   
    28    12    48 1   
    29    13    14 1   
    30    13    15 1   
    31    13    20 1   
    32    14    35 1   
    33    14    36 1   
    34    15    16 1   
    35    15    37 1   
    36    15    38 1   
    37    16    17 1   
    38    16    39 1   
    39    16    49 1   
    40    17    18 1   
    41    17    40 1   
    42    17    50 1   
    43    18    19 1   
    44    18    41 1   
    45    18    42 1   
    46    19    43 1   
    47    19    44 1   
    48    20    21 1   
    49    20    22 1   
@<TRIPOS>SUBSTRUCTURE
     1 3VN         1 TEMP              0 ****  ****    0 ROOT
