@<TRIPOS>MOLECULE
3VN
   50    49     1     0     0
SMALL
No Charge or Current Charge


@<TRIPOS>ATOM
      1 N01          2.0450     1.0660    -1.8570 n8         1 3VN      -1.002200
      2 C02          1.9910     0.4170    -0.4920 c3         1 3VN       0.036700
      3 C03          2.0010     1.4410     0.7420 c          1 3VN       0.725000
      4 O04          2.0230     1.0000     1.8850 o          1 3VN      -0.739500
      5 O05          2.0170     2.6440     0.5040 o          1 3VN      -0.739500
      6 C06          3.2260    -0.5390    -0.3790 c3         1 3VN      -0.051400
      7 C07          4.6130     0.1580    -0.3930 c3         1 3VN      -0.072900
      8 C08          5.7890    -0.8370    -0.2600 c3         1 3VN      -0.076900
      9 C09          7.1660    -0.1420    -0.2750 c3         1 3VN       0.141300
     10 N10          8.2680    -1.1140    -0.1480 n8         1 3VN      -0.999700
     11 C11          0.6810    -0.4380    -0.4290 c3         1 3VN      -0.048400
     12 C12         -0.6510     0.3710    -0.4930 c3         1 3VN      -0.048400
     13 C13         -1.9610    -0.4840    -0.4360 c3         1 3VN       0.036700
     14 N14         -2.0080    -1.3280    -1.6900 n8         1 3VN      -1.002200
     15 C15         -3.1960     0.4780    -0.4720 c3         1 3VN      -0.051400
     16 C16         -4.5830    -0.2140    -0.3900 c3         1 3VN      -0.072900
     17 C17         -5.7590     0.7890    -0.4110 c3         1 3VN      -0.076900
     18 C18         -7.1370     0.0990    -0.3290 c3         1 3VN       0.141300
     19 N19         -8.2390     1.0790    -0.3500 n8         1 3VN      -0.999700
     20 C20         -1.9780    -1.3140     0.9370 c          1 3VN       0.725000
     21 O21         -2.0100    -0.7080     2.0010 o          1 3VN      -0.739500
     22 O22         -1.9890    -2.5390     0.8790 o          1 3VN      -0.739500
     23 H1           1.1900     1.6180    -1.9790 hn         1 3VN       0.376000
     24 H2           2.7760     1.7850    -1.8320 hn         1 3VN       0.376000
     25 H5           3.1430    -1.1220     0.5470 hc         1 3VN       0.023700
     26 H6           4.7330     0.7230    -1.3250 hc         1 3VN       0.045700
     27 H7           5.6780    -1.4010     0.6750 hc         1 3VN       0.033200
     28 H8           5.7390    -1.5620    -1.0820 hc         1 3VN       0.033200
     29 H9           7.2920     0.4100    -1.2170 h1         1 3VN       0.024700
     30 H10          7.2300     0.5720     0.5580 h1         1 3VN       0.024700
     31 H11          8.2550    -1.7380    -0.9630 hn         1 3VN       0.373500
     32 H12          9.1630    -0.6170    -0.2340 hn         1 3VN       0.373500
     33 H14          0.6980    -1.1690    -1.2470 hc         1 3VN       0.037950
     34 H15         -0.6660     1.0870     0.3370 hc         1 3VN       0.037950
     35 H16         -1.1570    -1.8980    -1.7190 hn         1 3VN       0.376000
     36 H17         -2.7450    -2.0300    -1.5660 hn         1 3VN       0.376000
     37 H19         -3.1180     1.1920     0.3570 hc         1 3VN       0.023700
     38 H20         -3.1600     1.0790    -1.3900 hc         1 3VN       0.023700
     39 H21         -4.6990    -0.9100    -1.2300 hc         1 3VN       0.045700
     40 H22         -5.6520     1.4860     0.4300 hc         1 3VN       0.033200
     41 H23         -7.2600    -0.5860    -1.1800 h1         1 3VN       0.024700
     42 H24         -7.2040    -0.4840     0.6000 h1         1 3VN       0.024700
     43 H25         -9.1290     0.5830    -0.2210 hn         1 3VN       0.373500
     44 H26         -8.1680     1.6750     0.4830 hn         1 3VN       0.373500
     45 H3           3.1940    -1.2690    -1.1980 hc         1 3VN       0.023700
     46 H29          4.6700     0.8820     0.4290 hc         1 3VN       0.045700
     47 H13          0.6920    -1.0230     0.4980 hc         1 3VN       0.037950
     48 H30         -0.6630     0.9740    -1.4100 hc         1 3VN       0.037950
     49 H18         -4.6440    -0.8090     0.5290 hc         1 3VN       0.045700
     50 H31         -5.7070     1.3840    -1.3320 hc         1 3VN       0.033200
@<TRIPOS>BOND
     1     1     2 1   
     2     1    23 1   
     3     1    24 1   
     4     2     3 1   
     5     2     6 1   
     6     2    11 1   
     7     3     4 1   
     8     3     5 1   
     9     6     7 1   
    10     6    25 1   
    11     6    45 1   
    12     7     8 1   
    13     7    26 1   
    14     7    46 1   
    15     8     9 1   
    16     8    27 1   
    17     8    28 1   
    18     9    10 1   
    19     9    29 1   
    20     9    30 1   
    21    10    31 1   
    22    10    32 1   
    23    11    12 1   
    24    11    33 1   
    25    11    47 1   
    26    12    13 1   
    27    12    34 1   
    28    12    48 1   
    29    13    14 1   
    30    13    15 1   
    31    13    20 1   
    32    14    35 1   
    33    14    36 1   
    34    15    16 1   
    35    15    37 1   
    36    15    38 1   
    37    16    17 1   
    38    16    39 1   
    39    16    49 1   
    40    17    18 1   
    41    17    40 1   
    42    17    50 1   
    43    18    19 1   
    44    18    41 1   
    45    18    42 1   
    46    19    43 1   
    47    19    44 1   
    48    20    21 1   
    49    20    22 1   
@<TRIPOS>SUBSTRUCTURE
     1 3VN         1 TEMP              0 ****  ****    0 ROOT
