@<TRIPOS>MOLECULE
3VO
   33    35     1     0     0
SMALL
No Charge or Current Charge


@<TRIPOS>ATOM
      1 C4           0.9780     0.0800    -0.3060 ca         1 3VO      -0.136300
      2 N2          -2.4320    -2.6330    -1.2970 nv         1 3VO      -1.013200
      3 C7           1.9070     0.9990     0.2620 ca         1 3VO       0.196000
      4 C6           2.8580    -1.4870    -0.6040 ca         1 3VO      -0.170000
      5 C9          -1.1980     0.7090     0.9600 c6         1 3VO      -0.091700
      6 C13          3.7390    -0.5620    -0.0400 ca         1 3VO       0.202000
      7 C8          -0.5510     0.4250    -0.4480 c6         1 3VO       0.205500
      8 O1          -2.1140     2.1520    -1.3820 os         1 3VO      -0.429000
      9 C1          -2.6860     2.4930    -0.1040 c6         1 3VO       0.152600
     10 C2          -2.6530     1.2630     0.8330 c6         1 3VO      -0.109400
     11 C3          -0.7250     1.7350    -1.3070 c6         1 3VO       0.173600
     12 C5           1.4950    -1.1750    -0.7380 ca         1 3VO      -0.045000
     13 C10         -1.1160    -0.5370     1.8620 c6         1 3VO       0.072600
     14 S1          -1.9860    -1.9800     1.1350 ss         1 3VO      -0.402200
     15 C11         -1.8370    -1.6500    -0.5990 c2         1 3VO       0.705100
     16 N1          -1.2570    -0.6730    -1.1740 n2         1 3VO      -0.694900
     17 C12          3.2670     0.6780     0.3920 ca         1 3VO      -0.202000
     18 F1           1.5240     2.2160     0.7020 f          1 3VO      -0.179000
     19 F2           5.0490    -0.8660     0.0870 f          1 3VO      -0.170000
     20 H1          -2.4640    -3.5080    -0.7930 hn         1 3VO       0.474000
     21 H2          -2.0940    -2.6920    -2.2490 hn         1 3VO       0.474000
     22 H3           3.2320    -2.4510    -0.9400 ha         1 3VO       0.138000
     23 H4          -0.6260     1.4930     1.4680 hc         1 3VO       0.076700
     24 H5          -2.1200     3.3260     0.3370 h1         1 3VO       0.046700
     25 H6          -3.7240     2.8250    -0.2530 h1         1 3VO       0.046700
     26 H7          -3.3390     0.5000     0.4440 hc         1 3VO       0.060700
     27 H8          -3.0370     1.5470     1.8230 hc         1 3VO       0.060700
     28 H9          -0.1420     2.5690    -0.8980 h1         1 3VO       0.059200
     29 H10         -0.3570     1.5530    -2.3270 h1         1 3VO       0.059200
     30 H11          0.8580    -1.9320    -1.1870 ha         1 3VO       0.133000
     31 H12         -0.0640    -0.8200     2.0090 h1         1 3VO       0.077700
     32 H13         -1.5460    -0.3310     2.8530 h1         1 3VO       0.077700
     33 H14          3.9540     1.3960     0.8290 ha         1 3VO       0.151000
@<TRIPOS>BOND
     1     1     3 ar  
     2     1     7 1   
     3     1    12 ar  
     4     2    15 1   
     5     2    20 1   
     6     2    21 1   
     7     3    17 ar  
     8     3    18 1   
     9     4     6 ar  
    10     4    12 ar  
    11     4    22 1   
    12     5     7 1   
    13     5    10 1   
    14     5    13 1   
    15     5    23 1   
    16     6    17 ar  
    17     6    19 1   
    18     7    11 1   
    19     7    16 1   
    20     8     9 1   
    21     8    11 1   
    22     9    10 1   
    23     9    24 1   
    24     9    25 1   
    25    10    26 1   
    26    10    27 1   
    27    11    28 1   
    28    11    29 1   
    29    12    30 1   
    30    13    14 1   
    31    13    31 1   
    32    13    32 1   
    33    14    15 1   
    34    15    16 2   
    35    17    33 1   
@<TRIPOS>SUBSTRUCTURE
     1 3VO         1 TEMP              0 ****  ****    0 ROOT
