@<TRIPOS>MOLECULE
3VO
   33    35     1     0     0
SMALL
abcg2


@<TRIPOS>ATOM
      1 C4           0.9570     0.1010    -0.2710 ca         1 3VO      -0.136300
      2 N2          -2.4500    -2.5680    -1.2700 nv         1 3VO      -1.013200
      3 C7           1.8810     0.9600     0.3220 ca         1 3VO       0.196000
      4 C6           2.8340    -1.4150    -0.6780 ca         1 3VO      -0.170000
      5 C9          -1.1770     0.7020     0.9800 c6         1 3VO      -0.091700
      6 C13          3.6840    -0.5200    -0.0650 ca         1 3VO       0.202000
      7 C8          -0.5380     0.4110    -0.3960 c6         1 3VO       0.205500
      8 O1          -2.0640     2.0120    -1.4190 os         1 3VO      -0.429000
      9 C1          -2.6200     2.3900    -0.1780 c6         1 3VO       0.152600
     10 C2          -2.5980     1.2420     0.8150 c6         1 3VO      -0.109400
     11 C3          -0.7150     1.6530    -1.2930 c6         1 3VO       0.173600
     12 C5           1.4890    -1.0890    -0.7700 ca         1 3VO      -0.045000
     13 C10         -1.0960    -0.5090     1.8910 c6         1 3VO       0.072600
     14 S1          -1.9670    -1.9440     1.2040 ss         1 3VO      -0.402200
     15 C11         -1.7880    -1.6310    -0.5320 c2         1 3VO       0.705100
     16 N1          -1.1980    -0.6630    -1.0990 n2         1 3VO      -0.694900
     17 C12          3.2280     0.6780     0.4420 ca         1 3VO      -0.202000
     18 F1           1.4870     2.1440     0.8220 f          1 3VO      -0.179000
     19 F2           4.9870    -0.8100     0.0430 f          1 3VO      -0.170000
     20 H1          -2.5810    -3.4860    -0.8750 hn         1 3VO       0.474000
     21 H2          -2.2250    -2.5760    -2.2530 hn         1 3VO       0.474000
     22 H3           3.2040    -2.3480    -1.0790 ha         1 3VO       0.138000
     23 H4          -0.5940     1.4820     1.4750 hc         1 3VO       0.076700
     24 H5          -2.0720     3.2500     0.2350 h1         1 3VO       0.046700
     25 H6          -3.6440     2.7160    -0.3700 h1         1 3VO       0.046700
     26 H7          -3.2840     0.4580     0.4870 hc         1 3VO       0.060700
     27 H8          -2.9620     1.5970     1.7820 hc         1 3VO       0.060700
     28 H9          -0.1330     2.4970    -0.9040 h1         1 3VO       0.059200
     29 H10         -0.3420     1.4180    -2.2920 h1         1 3VO       0.059200
     30 H11          0.8300    -1.7880    -1.2620 ha         1 3VO       0.133000
     31 H12         -0.0610    -0.7840     2.0900 h1         1 3VO       0.077700
     32 H13         -1.5750    -0.3020     2.8490 h1         1 3VO       0.077700
     33 H14          3.8970     1.3840     0.9190 ha         1 3VO       0.151000
@<TRIPOS>BOND
     1     1     3 ar  
     2     1     7 1   
     3     1    12 ar  
     4     2    15 1   
     5     2    20 1   
     6     2    21 1   
     7     3    17 ar  
     8     3    18 1   
     9     4     6 ar  
    10     4    12 ar  
    11     4    22 1   
    12     5     7 1   
    13     5    10 1   
    14     5    13 1   
    15     5    23 1   
    16     6    17 ar  
    17     6    19 1   
    18     7    11 1   
    19     7    16 1   
    20     8     9 1   
    21     8    11 1   
    22     9    10 1   
    23     9    24 1   
    24     9    25 1   
    25    10    26 1   
    26    10    27 1   
    27    11    28 1   
    28    11    29 1   
    29    12    30 1   
    30    13    14 1   
    31    13    31 1   
    32    13    32 1   
    33    14    15 1   
    34    15    16 2   
    35    17    33 1   
@<TRIPOS>SUBSTRUCTURE
     1 3VO         1 TEMP              0 ****  ****    0 ROOT
