@<TRIPOS>MOLECULE
3VP
   36    38     1     0     0
SMALL
abcg2


@<TRIPOS>ATOM
      1 C4           2.0010     1.3100     0.3810 ca         1 3VP       0.195000
      2 N2          -0.8450    -3.3570    -1.4320 nv         1 3VP      -1.014200
      3 C7          -0.1350     0.0350    -0.3070 c6         1 3VP       0.205500
      4 C6           4.1670     0.5580    -0.1980 ca         1 3VP       0.202000
      5 C9          -2.7530     1.1630     0.1700 c6         1 3VP       0.131300
      6 C13         -0.6230    -2.2900    -0.6130 c2         1 3VP       0.703100
      7 C8          -0.7700     1.2170    -1.0630 c6         1 3VP       0.175600
      8 C1           3.6270    -0.5270    -0.8550 ca         1 3VP      -0.168000
      9 C2           2.2480    -0.6670    -0.8730 ca         1 3VP      -0.042000
     10 C3           1.3830     0.2360    -0.2550 ca         1 3VP      -0.142300
     11 C5           3.3700     1.4940     0.4280 ca         1 3VP      -0.202000
     12 F1           5.4960     0.7180    -0.1620 f          1 3VP      -0.170000
     13 F2           1.2650     2.2490     1.0020 f          1 3VP      -0.181000
     14 O1          -2.1670     1.0990    -1.1110 os         1 3VP      -0.425000
     15 C10         -2.2750     0.0150     1.0500 c6         1 3VP      -0.105400
     16 C11         -0.7480    -0.0220     1.1100 c6         1 3VP      -0.090700
     17 C12         -0.2160    -1.2050     1.8960 c6         1 3VP       0.071600
     18 S1          -0.5590    -2.7920     1.0860 ss         1 3VP      -0.400200
     19 N1          -0.4500    -1.1300    -1.0960 n2         1 3VP      -0.693900
     20 C14         -4.2500     1.1090     0.0050 c3         1 3VP       0.192600
     21 F3          -4.7080     2.2250    -0.6880 f          1 3VP      -0.259000
     22 H12         -1.3350    -4.1550    -1.0600 hn         1 3VP       0.476000
     23 H13         -1.1060    -3.1210    -2.3770 hn         1 3VP       0.476000
     24 H1          -2.4810     2.1140     0.6550 h1         1 3VP       0.048700
     25 H6          -0.4860     2.1720    -0.6080 h1         1 3VP       0.064200
     26 H7          -0.4090     1.2100    -2.0930 h1         1 3VP       0.064200
     27 H3           4.2630    -1.2520    -1.3450 ha         1 3VP       0.140000
     28 H4           1.8320    -1.5140    -1.3970 ha         1 3VP       0.141000
     29 H5           3.7940     2.3480     0.9400 ha         1 3VP       0.151000
     30 H8          -2.6610     0.1520     2.0630 hc         1 3VP       0.057700
     31 H9          -2.6830    -0.9310     0.6830 hc         1 3VP       0.057700
     32 H2          -0.4270     0.8640     1.6590 hc         1 3VP       0.079700
     33 H10          0.8590    -1.1180     2.0510 h1         1 3VP       0.080200
     34 H11         -0.6890    -1.2630     2.8770 h1         1 3VP       0.080200
     35 H14         -4.5460     0.2160    -0.5510 h1         1 3VP       0.049700
     36 H15         -4.7310     1.0910     0.9840 h1         1 3VP       0.049700
@<TRIPOS>BOND
     1     1    10 ar  
     2     1    11 ar  
     3     1    13 1   
     4     2     6 1   
     5     2    22 1   
     6     2    23 1   
     7     3     7 1   
     8     3    10 1   
     9     3    16 1   
    10     3    19 1   
    11     4     8 ar  
    12     4    11 ar  
    13     4    12 1   
    14     5    14 1   
    15     5    15 1   
    16     5    20 1   
    17     5    24 1   
    18     6    18 1   
    19     6    19 2   
    20     7    14 1   
    21     7    25 1   
    22     7    26 1   
    23     8     9 ar  
    24     8    27 1   
    25     9    10 ar  
    26     9    28 1   
    27    11    29 1   
    28    15    16 1   
    29    15    30 1   
    30    15    31 1   
    31    16    17 1   
    32    16    32 1   
    33    17    18 1   
    34    17    33 1   
    35    17    34 1   
    36    20    21 1   
    37    20    35 1   
    38    20    36 1   
@<TRIPOS>SUBSTRUCTURE
     1 3VP         1 TEMP              0 ****  ****    0 ROOT
