@<TRIPOS>MOLECULE
3VP
   36    38     1     0     0
SMALL
No Charge or Current Charge


@<TRIPOS>ATOM
      1 C4           2.0220     1.3640     0.3430 ca         1 3VP       0.195000
      2 N2          -0.8590    -3.4210    -1.4400 nv         1 3VP      -1.014200
      3 C7          -0.1190     0.0270    -0.3650 c6         1 3VP       0.205500
      4 C6           4.2630     0.5760    -0.1480 ca         1 3VP       0.202000
      5 C9          -2.8220     1.1880     0.2100 c6         1 3VP       0.131300
      6 C13         -0.5750    -2.3550    -0.6730 c2         1 3VP       0.703100
      7 C8          -0.7780     1.2540    -1.1000 c6         1 3VP       0.175600
      8 C1           3.7280    -0.5490    -0.7810 ca         1 3VP      -0.168000
      9 C2           2.3360    -0.7240    -0.8550 ca         1 3VP      -0.042000
     10 C3           1.4400     0.2280    -0.2900 ca         1 3VP      -0.142300
     11 C5           3.4130     1.5310     0.4120 ca         1 3VP      -0.202000
     12 F1           5.6010     0.7410    -0.0800 f          1 3VP      -0.170000
     13 F2           1.2640     2.3300     0.9050 f          1 3VP      -0.181000
     14 O1          -2.2270     1.1640    -1.1080 os         1 3VP      -0.425000
     15 C10         -2.3130    -0.0270     1.0280 c6         1 3VP      -0.105400
     16 C11         -0.7520    -0.0410     1.0750 c6         1 3VP      -0.090700
     17 C12         -0.1950    -1.2430     1.8630 c6         1 3VP       0.071600
     18 S1          -0.5490    -2.8400     1.0310 ss         1 3VP      -0.400200
     19 N1          -0.4370    -1.1900    -1.1680 n2         1 3VP      -0.693900
     20 C14         -4.3710     1.1850     0.0510 c3         1 3VP       0.192600
     21 F3          -4.8210     2.2960    -0.5870 f          1 3VP      -0.259000
     22 H12         -1.3590    -4.1400    -0.9360 hn         1 3VP       0.476000
     23 H13         -1.2630    -3.1560    -2.3280 hn         1 3VP       0.476000
     24 H1          -2.5300     2.1190     0.7170 h1         1 3VP       0.048700
     25 H6          -0.4990     2.2050    -0.6310 h1         1 3VP       0.064200
     26 H7          -0.4230     1.2890    -2.1400 h1         1 3VP       0.064200
     27 H3           4.3940    -1.2880    -1.2190 ha         1 3VP       0.140000
     28 H4           1.9780    -1.6150    -1.3630 ha         1 3VP       0.141000
     29 H5           3.8310     2.4050     0.9010 ha         1 3VP       0.151000
     30 H8          -2.7170     0.0200     2.0490 hc         1 3VP       0.057700
     31 H9          -2.7040    -0.9530     0.5840 hc         1 3VP       0.057700
     32 H2          -0.4650     0.8540     1.6390 hc         1 3VP       0.079700
     33 H10          0.8960    -1.1500     1.9590 h1         1 3VP       0.080200
     34 H11         -0.6170    -1.2750     2.8770 h1         1 3VP       0.080200
     35 H14         -4.6820     0.3000    -0.5190 h1         1 3VP       0.049700
     36 H15         -4.8370     1.1440     1.0430 h1         1 3VP       0.049700
@<TRIPOS>BOND
     1     1    10 ar  
     2     1    11 ar  
     3     1    13 1   
     4     2     6 1   
     5     2    22 1   
     6     2    23 1   
     7     3     7 1   
     8     3    10 1   
     9     3    16 1   
    10     3    19 1   
    11     4     8 ar  
    12     4    11 ar  
    13     4    12 1   
    14     5    14 1   
    15     5    15 1   
    16     5    20 1   
    17     5    24 1   
    18     6    18 1   
    19     6    19 2   
    20     7    14 1   
    21     7    25 1   
    22     7    26 1   
    23     8     9 ar  
    24     8    27 1   
    25     9    10 ar  
    26     9    28 1   
    27    11    29 1   
    28    15    16 1   
    29    15    30 1   
    30    15    31 1   
    31    16    17 1   
    32    16    32 1   
    33    17    18 1   
    34    17    33 1   
    35    17    34 1   
    36    20    21 1   
    37    20    35 1   
    38    20    36 1   
@<TRIPOS>SUBSTRUCTURE
     1 3VP         1 TEMP              0 ****  ****    0 ROOT
