@<TRIPOS>MOLECULE
3VR
   30    31     1     0     0
SMALL
No Charge or Current Charge


@<TRIPOS>ATOM
      1 CAA          5.5160     1.4070    -0.2780 c3         1 3VR       0.143100
      2 NAL          4.0820     1.1090    -0.0940 n7         1 3VR      -0.857400
      3 CAI          3.7130    -0.3090    -0.2490 c3         1 3VR       0.201100
      4 CAM          2.2240    -0.5070     0.0030 ca         1 3VR      -0.082300
      5 CAE          1.2940    -0.2990    -1.0330 ca         1 3VR      -0.096000
      6 CAG         -0.0810    -0.4860    -0.8050 ca         1 3VR      -0.096500
      7 CAD          1.7610    -0.9070     1.2720 ca         1 3VR      -0.096000
      8 CAF          0.3870    -1.0950     1.5010 ca         1 3VR      -0.096500
      9 CAN         -0.5460    -0.8820     0.4670 ca         1 3VR      -0.101300
     10 CAJ         -2.0380    -1.1000     0.7320 c3         1 3VR       0.136900
     11 NAO         -2.9280    -0.0870     0.1320 na         1 3VR       0.127800
     12 NAK         -3.1770     1.1040     0.7930 nc         1 3VR      -0.516800
     13 CAC         -3.9930     1.7340    -0.0300 cd         1 3VR       0.234900
     14 CAB         -4.2740     0.9820    -1.1860 cd         1 3VR      -0.230000
     15 CAH         -3.5920    -0.1960    -1.0880 cc         1 3VR      -0.177000
     16 H1           5.7060     2.4810    -0.1520 h1         1 3VR       0.029700
     17 H2           6.1270     0.8640     0.4560 h1         1 3VR       0.029700
     18 H3           5.8490     1.1180    -1.2840 h1         1 3VR       0.029700
     19 H4           3.8120     1.3990     0.8550 hn         1 3VR       0.412000
     20 H6           3.9550    -0.6600    -1.2620 h1         1 3VR       0.035700
     21 H7           4.2820    -0.9330     0.4560 h1         1 3VR       0.035700
     22 H8           1.6380     0.0100    -2.0170 ha         1 3VR       0.119500
     23 H9          -0.7800    -0.3240    -1.6220 ha         1 3VR       0.115000
     24 H10          2.4680    -1.0740     2.0820 ha         1 3VR       0.119500
     25 H11          0.0490    -1.4060     2.4870 ha         1 3VR       0.115000
     26 H12         -2.3250    -2.0830     0.3410 h1         1 3VR       0.066200
     27 H13         -2.2210    -1.1160     1.8140 h1         1 3VR       0.066200
     28 H14         -4.3620     2.7180     0.2340 h4         1 3VR       0.036100
     29 H15         -4.9180     1.2880    -2.0040 ha         1 3VR       0.144000
     30 H16         -3.5190    -1.0580    -1.7410 h4         1 3VR       0.151000
@<TRIPOS>BOND
     1     1     2 1   
     2     1    16 1   
     3     1    17 1   
     4     1    18 1   
     5     2     3 1   
     6     2    19 1   
     7     3     4 1   
     8     3    20 1   
     9     3    21 1   
    10     4     5 ar  
    11     4     7 ar  
    12     5     6 ar  
    13     5    22 1   
    14     6     9 ar  
    15     6    23 1   
    16     7     8 ar  
    17     7    24 1   
    18     8     9 ar  
    19     8    25 1   
    20     9    10 1   
    21    10    11 1   
    22    10    26 1   
    23    10    27 1   
    24    11    12 1   
    25    11    15 1   
    26    12    13 2   
    27    13    14 1   
    28    13    28 1   
    29    14    15 2   
    30    14    29 1   
    31    15    30 1   
@<TRIPOS>SUBSTRUCTURE
     1 3VR         1 TEMP              0 ****  ****    0 ROOT
