@<TRIPOS>MOLECULE
3VR
   30    31     1     0     0
SMALL
abcg2


@<TRIPOS>ATOM
      1 CAA          5.3870     1.3750    -0.5030 c3         1 3VR       0.143100
      2 NAL          3.9700     1.1370    -0.3220 n7         1 3VR      -0.857400
      3 CAI          3.6840    -0.2380     0.0390 c3         1 3VR       0.201100
      4 CAM          2.2060    -0.4750     0.1890 ca         1 3VR      -0.082300
      5 CAE          1.3210    -0.1080    -0.8260 ca         1 3VR      -0.096000
      6 CAG         -0.0380    -0.3380    -0.7020 ca         1 3VR      -0.096500
      7 CAD          1.6850    -1.0640     1.3340 ca         1 3VR      -0.096000
      8 CAF          0.3200    -1.2900     1.4620 ca         1 3VR      -0.096500
      9 CAN         -0.5560    -0.9350     0.4460 ca         1 3VR      -0.101300
     10 CAJ         -2.0270    -1.2340     0.5810 c3         1 3VR       0.136900
     11 NAO         -2.8670    -0.1730     0.0770 na         1 3VR       0.127800
     12 NAK         -2.9140     0.9970     0.7050 nc         1 3VR      -0.516800
     13 CAC         -3.7170     1.7510    -0.0240 cd         1 3VR       0.234900
     14 CAB         -4.1940     1.0560    -1.1480 cd         1 3VR      -0.230000
     15 CAH         -3.6150    -0.1870    -1.0430 cc         1 3VR      -0.177000
     16 H1           5.5600     2.4290    -0.7200 h1         1 3VR       0.029700
     17 H2           6.0060     1.1030     0.3630 h1         1 3VR       0.029700
     18 H3           5.7520     0.7980    -1.3550 h1         1 3VR       0.029700
     19 H4           3.6210     1.7450     0.4080 hn         1 3VR       0.412000
     20 H6           4.0740    -0.8780    -0.7610 h1         1 3VR       0.035700
     21 H7           4.1990    -0.5590     0.9580 h1         1 3VR       0.035700
     22 H8           1.7040     0.3620    -1.7230 ha         1 3VR       0.119500
     23 H9          -0.6990    -0.0470    -1.5110 ha         1 3VR       0.115000
     24 H10          2.3500    -1.3440     2.1430 ha         1 3VR       0.119500
     25 H11         -0.0630    -1.7410     2.3700 ha         1 3VR       0.115000
     26 H12         -2.2850    -2.1380     0.0260 h1         1 3VR       0.066200
     27 H13         -2.2810    -1.4200     1.6250 h1         1 3VR       0.066200
     28 H14         -3.9330     2.7650     0.2760 h4         1 3VR       0.036100
     29 H15         -4.8610     1.4080    -1.9170 ha         1 3VR       0.144000
     30 H16         -3.6790    -1.0630    -1.6680 h4         1 3VR       0.151000
@<TRIPOS>BOND
     1     1     2 1   
     2     1    16 1   
     3     1    17 1   
     4     1    18 1   
     5     2     3 1   
     6     2    19 1   
     7     3     4 1   
     8     3    20 1   
     9     3    21 1   
    10     4     5 ar  
    11     4     7 ar  
    12     5     6 ar  
    13     5    22 1   
    14     6     9 ar  
    15     6    23 1   
    16     7     8 ar  
    17     7    24 1   
    18     8     9 ar  
    19     8    25 1   
    20     9    10 1   
    21    10    11 1   
    22    10    26 1   
    23    10    27 1   
    24    11    12 1   
    25    11    15 1   
    26    12    13 2   
    27    13    14 1   
    28    13    28 1   
    29    14    15 2   
    30    14    29 1   
    31    15    30 1   
@<TRIPOS>SUBSTRUCTURE
     1 3VR         1 TEMP              0 ****  ****    0 ROOT
