@<TRIPOS>MOLECULE
3VS
   23    24     1     0     0
SMALL
No Charge or Current Charge


@<TRIPOS>ATOM
      1 CAF         -0.0630    -1.2330    -0.2570 ca         1 3VS      -0.133000
      2 CAD          1.3420    -1.2270    -0.2550 ca         1 3VS      -0.054000
      3 CAL          2.0600    -0.0310    -0.0320 ca         1 3VS      -0.158600
      4 CAK          3.5740    -0.0590    -0.0360 c          1 3VS       0.617700
      5 OAB          4.2130    -1.0810    -0.2240 o          1 3VS      -0.599100
      6 NAA          4.2390     1.0970     0.1790 nt         1 3VS      -0.601000
      7 CAE          1.3310     1.1610     0.1890 ca         1 3VS      -0.054000
      8 CAG         -0.0750     1.1510     0.1850 ca         1 3VS      -0.133000
      9 CAM         -0.7860    -0.0450    -0.0380 ca         1 3VS       0.030800
     10 NAN         -2.1850    -0.0530    -0.0420 na         1 3VS      -0.082300
     11 CAH         -2.9700    -1.0860     0.4090 cc         1 3VS      -0.219000
     12 CAC         -4.2520    -0.6410     0.1940 cd         1 3VS       0.234900
     13 NAJ         -4.2550     0.6260    -0.3750 nd         1 3VS      -0.666000
     14 CAI         -2.9780     0.9690    -0.5110 cc         1 3VS       0.403400
     15 H1          -0.5860    -2.1680    -0.4420 ha         1 3VS       0.130500
     16 H2           1.8730    -2.1610    -0.4310 ha         1 3VS       0.130000
     17 H3           3.7350     1.9550     0.3370 hn         1 3VS       0.315500
     18 H4           5.2480     1.0890     0.1780 hn         1 3VS       0.315500
     19 H5           1.8380     2.1060     0.3680 ha         1 3VS       0.130000
     20 H6          -0.6070     2.0820     0.3690 ha         1 3VS       0.130500
     21 H7          -2.5920    -2.0060     0.8350 h4         1 3VS       0.162000
     22 H8          -5.1760    -1.1610     0.4190 h4         1 3VS       0.041100
     23 H9          -2.5860     1.8880    -0.9300 h5         1 3VS       0.057100
@<TRIPOS>BOND
     1     1     2 ar  
     2     1     9 ar  
     3     1    15 1   
     4     2     3 ar  
     5     2    16 1   
     6     3     4 1   
     7     3     7 ar  
     8     4     5 2   
     9     4     6 1   
    10     6    17 1   
    11     6    18 1   
    12     7     8 ar  
    13     7    19 1   
    14     8     9 ar  
    15     8    20 1   
    16     9    10 1   
    17    10    11 1   
    18    10    14 1   
    19    11    12 2   
    20    11    21 1   
    21    12    13 1   
    22    12    22 1   
    23    13    14 2   
    24    14    23 1   
@<TRIPOS>SUBSTRUCTURE
     1 3VS         1 TEMP              0 ****  ****    0 ROOT
