@<TRIPOS>MOLECULE
3VS
   23    24     1     0     0
SMALL
bcc


@<TRIPOS>ATOM
      1 CAF         -0.0300    -1.2040    -0.2790 ca         1 3VS      -0.151000
      2 CAD          1.3530    -1.1910    -0.2290 ca         1 3VS      -0.072000
      3 CAL          2.0450    -0.0200     0.0650 ca         1 3VS      -0.158600
      4 CAK          3.5400    -0.0710     0.1040 c          1 3VS       0.684700
      5 OAB          4.1270    -1.1310     0.2770 o          1 3VS      -0.599100
      6 NAA          4.1780     1.0970    -0.0560 nt         1 3VS      -0.668000
      7 CAE          1.3200     1.1360     0.3440 ca         1 3VS      -0.072000
      8 CAG         -0.0640     1.1260     0.3260 ca         1 3VS      -0.151000
      9 CAM         -0.7410    -0.0430     0.0010 ca         1 3VS       0.030800
     10 NAN         -2.1470    -0.0520    -0.0370 na         1 3VS      -0.133000
     11 CAH         -2.9750    -1.0890     0.3220 cc         1 3VS      -0.251600
     12 CAC         -4.2400    -0.6340     0.1050 cd         1 3VS       0.300200
     13 NAJ         -4.2100     0.6440    -0.3830 nd         1 3VS      -0.666000
     14 CAI         -2.9500     0.9630    -0.4540 cc         1 3VS       0.403400
     15 H1          -0.5470    -2.1140    -0.5520 ha         1 3VS       0.148500
     16 H2           1.8970    -2.1000    -0.4460 ha         1 3VS       0.148000
     17 H3           3.7090     1.9370    -0.3450 hn         1 3VS       0.315500
     18 H4           5.1850     1.1160    -0.0600 hn         1 3VS       0.315500
     19 H5           1.8180     2.0560     0.6210 ha         1 3VS       0.148000
     20 H6          -0.6080     2.0240     0.5890 ha         1 3VS       0.148500
     21 H7          -2.6020    -2.0180     0.7160 h4         1 3VS       0.180000
     22 H8          -5.1670    -1.1580     0.2800 h4         1 3VS       0.041100
     23 H9          -2.5500     1.8960    -0.8210 h5         1 3VS       0.057100
@<TRIPOS>BOND
     1     1     2 ar  
     2     1     9 ar  
     3     1    15 1   
     4     2     3 ar  
     5     2    16 1   
     6     3     4 1   
     7     3     7 ar  
     8     4     5 2   
     9     4     6 1   
    10     6    17 1   
    11     6    18 1   
    12     7     8 ar  
    13     7    19 1   
    14     8     9 ar  
    15     8    20 1   
    16     9    10 1   
    17    10    11 1   
    18    10    14 1   
    19    11    12 2   
    20    11    21 1   
    21    12    13 1   
    22    12    22 1   
    23    13    14 2   
    24    14    23 1   
@<TRIPOS>SUBSTRUCTURE
     1 3VS         1 TEMP              0 ****  ****    0 ROOT
