@<TRIPOS>MOLECULE
3VW
   29    30     1     0     0
SMALL
No Charge or Current Charge


@<TRIPOS>ATOM
      1 CAI          1.8110    -0.7510     1.1530 c6         1 3VW      -0.066900
      2 CAG          3.0740    -1.4570     0.5980 c6         1 3VW       0.159300
      3 NAK          4.0030    -0.4890    -0.0380 n7         1 3VW      -0.861400
      4 CAH          3.3760     0.2680    -1.1500 c6         1 3VW       0.159300
      5 CAJ          2.1270     1.0510    -0.6710 c6         1 3VW      -0.066900
      6 CAN          1.1270     0.1110     0.0570 c6         1 3VW      -0.159700
      7 CAL         -0.1610     0.8170     0.5460 c          1 3VW       0.586700
      8 OAA         -0.0840     1.8220     1.2440 o          1 3VW      -0.520100
      9 CAM         -1.5100     0.2370     0.1690 ca         1 3VW      -0.173600
     10 CAE         -2.6220     1.1010     0.0510 ca         1 3VW      -0.066000
     11 CAC         -3.8890     0.5960    -0.2890 ca         1 3VW      -0.125000
     12 CAB         -4.0630    -0.7800    -0.5080 ca         1 3VW      -0.085000
     13 CAD         -2.9700    -1.6500    -0.3800 ca         1 3VW      -0.125000
     14 CAF         -1.7010    -1.1490    -0.0410 ca         1 3VW      -0.066000
     15 H1           1.1120    -1.5000     1.5490 hc         1 3VW       0.057700
     16 H2           2.0960    -0.1130     2.0010 hc         1 3VW       0.057700
     17 H3           3.5920    -1.9810     1.4140 h1         1 3VW       0.028950
     18 H4           2.7740    -2.2130    -0.1440 h1         1 3VW       0.028950
     19 H5           4.8130    -1.0040    -0.4060 hn         1 3VW       0.411000
     20 H7           4.1090     0.9700    -1.5750 h1         1 3VW       0.028950
     21 H8           3.0850    -0.4320    -1.9470 h1         1 3VW       0.028950
     22 H9           2.4440     1.8560     0.0070 hc         1 3VW       0.057700
     23 H10          1.6410     1.5360    -1.5280 hc         1 3VW       0.057700
     24 H11          0.7960    -0.6070    -0.7030 hc         1 3VW       0.058700
     25 H12         -2.5050     2.1710     0.2170 ha         1 3VW       0.123000
     26 H13         -4.7350     1.2720    -0.3820 ha         1 3VW       0.116500
     27 H14         -5.0450    -1.1700    -0.7700 ha         1 3VW       0.114000
     28 H15         -3.1060    -2.7180    -0.5400 ha         1 3VW       0.116500
     29 H16         -0.8790    -1.8530     0.0700 ha         1 3VW       0.123000
@<TRIPOS>BOND
     1     1     2 1   
     2     1     6 1   
     3     1    15 1   
     4     1    16 1   
     5     2     3 1   
     6     2    17 1   
     7     2    18 1   
     8     3     4 1   
     9     3    19 1   
    10     4     5 1   
    11     4    20 1   
    12     4    21 1   
    13     5     6 1   
    14     5    22 1   
    15     5    23 1   
    16     6     7 1   
    17     6    24 1   
    18     7     8 2   
    19     7     9 1   
    20     9    10 ar  
    21     9    14 ar  
    22    10    11 ar  
    23    10    25 1   
    24    11    12 ar  
    25    11    26 1   
    26    12    13 ar  
    27    12    27 1   
    28    13    14 ar  
    29    13    28 1   
    30    14    29 1   
@<TRIPOS>SUBSTRUCTURE
     1 3VW         1 TEMP              0 ****  ****    0 ROOT
