@<TRIPOS>MOLECULE
3VW
   29    30     1     0     0
SMALL
abcg2


@<TRIPOS>ATOM
      1 CAI          1.4350    -0.6360     0.8990 c6         1 3VW      -0.066900
      2 CAG          2.7160    -1.4340     0.7050 c6         1 3VW       0.159300
      3 NAK          3.8160    -0.5470     0.3790 n7         1 3VW      -0.861400
      4 CAH          3.5780     0.1730    -0.8590 c6         1 3VW       0.159300
      5 CAJ          2.3410     1.0500    -0.7210 c6         1 3VW      -0.066900
      6 CAN          1.1310     0.1910    -0.3640 c6         1 3VW      -0.159700
      7 CAL         -0.1280     1.0000    -0.1560 c          1 3VW       0.586700
      8 OAA         -0.0840     2.1990     0.0270 o          1 3VW      -0.520100
      9 CAM         -1.4440     0.2930    -0.1310 ca         1 3VW      -0.173600
     10 CAE         -2.5640     0.9810     0.3420 ca         1 3VW      -0.066000
     11 CAC         -3.8050     0.3690     0.3770 ca         1 3VW      -0.125000
     12 CAB         -3.9490    -0.9390    -0.0690 ca         1 3VW      -0.085000
     13 CAD         -2.8450    -1.6320    -0.5450 ca         1 3VW      -0.125000
     14 CAF         -1.5990    -1.0210    -0.5720 ca         1 3VW      -0.066000
     15 H1           0.6150    -1.3190     1.1280 hc         1 3VW       0.057700
     16 H2           1.5480     0.0370     1.7540 hc         1 3VW       0.057700
     17 H3           2.9540    -1.9730     1.6240 h1         1 3VW       0.028950
     18 H4           2.5380    -2.1920    -0.0760 h1         1 3VW       0.028950
     19 H5           4.6700    -1.0840     0.3000 hn         1 3VW       0.411000
     20 H7           4.4490     0.7950    -1.0780 h1         1 3VW       0.028950
     21 H8           3.4410    -0.5020    -1.7200 h1         1 3VW       0.028950
     22 H9           2.5140     1.7950     0.0590 hc         1 3VW       0.057700
     23 H10          2.1680     1.5870    -1.6550 hc         1 3VW       0.057700
     24 H11          0.9660    -0.5150    -1.1870 hc         1 3VW       0.058700
     25 H12         -2.4590     2.0010     0.6890 ha         1 3VW       0.123000
     26 H13         -4.6640     0.9120     0.7510 ha         1 3VW       0.116500
     27 H14         -4.9200    -1.4170    -0.0460 ha         1 3VW       0.114000
     28 H15         -2.9520    -2.6500    -0.8960 ha         1 3VW       0.116500
     29 H16         -0.7560    -1.5820    -0.9540 ha         1 3VW       0.123000
@<TRIPOS>BOND
     1     1     2 1   
     2     1     6 1   
     3     1    15 1   
     4     1    16 1   
     5     2     3 1   
     6     2    17 1   
     7     2    18 1   
     8     3     4 1   
     9     3    19 1   
    10     4     5 1   
    11     4    20 1   
    12     4    21 1   
    13     5     6 1   
    14     5    22 1   
    15     5    23 1   
    16     6     7 1   
    17     6    24 1   
    18     7     8 2   
    19     7     9 1   
    20     9    10 ar  
    21     9    14 ar  
    22    10    11 ar  
    23    10    25 1   
    24    11    12 ar  
    25    11    26 1   
    26    12    13 ar  
    27    12    27 1   
    28    13    14 ar  
    29    13    28 1   
    30    14    29 1   
@<TRIPOS>SUBSTRUCTURE
     1 3VW         1 TEMP              0 ****  ****    0 ROOT
