@<TRIPOS>MOLECULE
3VX
   23    24     1     0     0
SMALL
bcc


@<TRIPOS>ATOM
      1 CAA          4.7880    -0.0980    -0.0780 c3         1 3VX      -0.182100
      2 CAJ          3.3710     0.4130    -0.1030 c          1 3VX       0.678100
      3 OAB          3.1180     1.6030    -0.1200 o          1 3VX      -0.575100
      4 NAI          2.4210    -0.5650    -0.0960 ns         1 3VX      -0.475100
      5 CAL          1.0350    -0.4560    -0.0900 ca         1 3VX       0.098600
      6 CAF          0.3480     0.7760    -0.1190 ca         1 3VX      -0.131000
      7 CAM         -1.0260     0.7390    -0.1100 ca         1 3VX      -0.034800
      8 CAH         -2.0020     1.8500    -0.1350 cc         1 3VX      -0.061200
      9 CAG         -3.2490     1.3630    -0.1160 cd         1 3VX      -0.244200
     10 CAK         -3.1820    -0.1280    -0.0770 c          1 3VX       0.581900
     11 OAC         -4.1120    -0.9010    -0.0530 o          1 3VX      -0.491100
     12 CAN         -1.7350    -0.4610    -0.0750 ca         1 3VX      -0.217600
     13 CAE         -1.0730    -1.6660    -0.0470 ca         1 3VX      -0.023000
     14 CAD          0.3180    -1.6560    -0.0550 ca         1 3VX      -0.208000
     15 H1           4.8710    -1.1810    -0.1410 hc         1 3VX       0.066033
     16 H2           5.3440     0.3410    -0.9050 hc         1 3VX       0.066033
     17 H3           5.2670     0.2290     0.8460 hc         1 3VX       0.066033
     18 H4           2.7680    -1.5120    -0.0840 hn         1 3VX       0.318500
     19 H5           0.8800     1.7130    -0.1470 ha         1 3VX       0.174000
     20 H6          -1.7220     2.8930    -0.1640 ha         1 3VX       0.152000
     21 H7          -4.1700     1.9250    -0.1280 ha         1 3VX       0.164000
     22 H8          -1.6070    -2.6070    -0.0190 ha         1 3VX       0.148000
     23 H9           0.8580    -2.5950    -0.0320 ha         1 3VX       0.131000
@<TRIPOS>BOND
     1     1     2 1   
     2     1    15 1   
     3     1    16 1   
     4     1    17 1   
     5     2     3 2   
     6     2     4 1   
     7     4     5 1   
     8     4    18 1   
     9     5     6 ar  
    10     5    14 ar  
    11     6     7 ar  
    12     6    19 1   
    13     7     8 1   
    14     7    12 ar  
    15     8     9 2   
    16     8    20 1   
    17     9    10 1   
    18     9    21 1   
    19    10    11 2   
    20    10    12 1   
    21    12    13 ar  
    22    13    14 ar  
    23    13    22 1   
    24    14    23 1   
@<TRIPOS>SUBSTRUCTURE
     1 3VX         1 TEMP              0 ****  ****    0 ROOT
