@<TRIPOS>MOLECULE
3VX
   23    24     1     0     0
SMALL
No Charge or Current Charge


@<TRIPOS>ATOM
      1 CAA          4.8650    -0.1040    -0.1290 c3         1 3VX      -0.182100
      2 CAJ          3.4460     0.4570    -0.1630 c          1 3VX       0.611100
      3 OAB          3.2400     1.6610    -0.2680 o          1 3VX      -0.575100
      4 NAI          2.4530    -0.5080    -0.0650 ns         1 3VX      -0.149000
      5 CAL          1.0340    -0.4250    -0.0570 ca         1 3VX       0.006000
      6 CAF          0.3220     0.7980    -0.1590 ca         1 3VX      -0.113000
      7 CAM         -1.0780     0.7650    -0.1400 ca         1 3VX      -0.034800
      8 CAH         -2.0140     1.8800    -0.2300 cc         1 3VX      -0.111200
      9 CAG         -3.2800     1.3180    -0.1650 cd         1 3VX      -0.294200
     10 CAK         -3.2140    -0.1450    -0.0340 c          1 3VX       0.581900
     11 OAC         -4.1370    -0.9430     0.0480 o          1 3VX      -0.491100
     12 CAN         -1.7630    -0.4360    -0.0240 ca         1 3VX      -0.217600
     13 CAE         -1.0940    -1.6610     0.0780 ca         1 3VX      -0.005000
     14 CAD          0.3160    -1.6420     0.0610 ca         1 3VX      -0.190000
     15 H1           4.9700    -0.8560    -0.9190 hc         1 3VX       0.066033
     16 H2           5.6300     0.6760    -0.2070 hc         1 3VX       0.066033
     17 H3           4.9890    -0.7040     0.7800 hc         1 3VX       0.066033
     18 H4           2.8060    -1.4530     0.0150 hn         1 3VX       0.152000
     19 H5           0.8240     1.7550    -0.2510 ha         1 3VX       0.156000
     20 H6          -1.7800     2.9380    -0.3280 ha         1 3VX       0.202000
     21 H7          -4.2370     1.8260    -0.2000 ha         1 3VX       0.214000
     22 H8          -1.6440    -2.5960     0.1690 ha         1 3VX       0.130000
     23 H9           0.8550    -2.5830     0.1390 ha         1 3VX       0.113000
@<TRIPOS>BOND
     1     1     2 1   
     2     1    15 1   
     3     1    16 1   
     4     1    17 1   
     5     2     3 2   
     6     2     4 1   
     7     4     5 1   
     8     4    18 1   
     9     5     6 ar  
    10     5    14 ar  
    11     6     7 ar  
    12     6    19 1   
    13     7     8 1   
    14     7    12 ar  
    15     8     9 2   
    16     8    20 1   
    17     9    10 1   
    18     9    21 1   
    19    10    11 2   
    20    10    12 1   
    21    12    13 ar  
    22    13    14 ar  
    23    13    22 1   
    24    14    23 1   
@<TRIPOS>SUBSTRUCTURE
     1 3VX         1 TEMP              0 ****  ****    0 ROOT
