@<TRIPOS>MOLECULE
3VY
   24    25     1     0     0
SMALL
No Charge or Current Charge


@<TRIPOS>ATOM
      1 C8           0.0920     1.8300     0.3450 cc         1 3VY      -0.213100
      2 C4          -2.7830    -0.3620    -0.2860 ca         1 3VY      -0.154000
      3 C5          -1.5690     0.2830    -0.0020 ca         1 3VY      -0.046200
      4 C2          -1.6570    -2.4970     0.1540 ca         1 3VY      -0.177000
      5 C9           0.5990     0.5530     0.5630 cd         1 3VY      -0.025400
      6 C11          2.0170     0.2410     0.9780 c3         1 3VY      -0.163200
      7 C12          2.8850    -0.1700    -0.2240 c          1 3VY       0.720000
      8 C3          -2.8180    -1.7710    -0.2040 ca         1 3VY      -0.105000
      9 O14          2.9100    -1.3500    -0.5430 o          1 3VY      -0.730000
     10 O13          3.4280     0.7130    -0.8720 o          1 3VY      -0.730000
     11 C6          -0.4490    -0.4230     0.3440 ca         1 3VY      -0.075800
     12 C1          -0.4490    -1.8220     0.4340 ca         1 3VY      -0.018000
     13 N7          -1.2570     1.6340    -0.0070 na         1 3VY      -0.106700
     14 H1           0.5580     2.8060     0.4090 h4         1 3VY       0.196000
     15 H2          -3.6720     0.2000    -0.5610 ha         1 3VY       0.092000
     16 H3          -1.6950    -3.5820     0.2140 ha         1 3VY       0.093000
     17 H4          -2.6240     2.5020    -1.3590 h1         1 3VY       0.031033
     18 H5          -3.0870     2.6140     0.3670 h1         1 3VY       0.031033
     19 H6          -1.7890     3.6590    -0.2820 h1         1 3VY       0.031033
     20 H7           2.4180     1.1600     1.4220 hc         1 3VY       0.028200
     21 H8           1.9580    -0.5850     1.6960 hc         1 3VY       0.028200
     22 H9          -3.7440    -2.3010    -0.4180 ha         1 3VY       0.085000
     23 H11          0.4500    -2.3690     0.7090 ha         1 3VY       0.129000
     24 C10         -2.2510     2.6660    -0.3410 c3         1 3VY       0.080900
@<TRIPOS>BOND
     1     1     5 2   
     2     1    13 1   
     3     1    14 1   
     4     2     3 ar  
     5     2     8 ar  
     6     2    15 1   
     7     3    11 ar  
     8     3    13 1   
     9     4     8 ar  
    10     4    12 ar  
    11     4    16 1   
    12     5     6 1   
    13     5    11 1   
    14     6     7 1   
    15     6    20 1   
    16     6    21 1   
    17     7     9 1   
    18     7    10 1   
    19     8    22 1   
    20    11    12 ar  
    21    12    23 1   
    22    13    24 1   
    23    17    24 1   
    24    18    24 1   
    25    19    24 1   
@<TRIPOS>SUBSTRUCTURE
     1 3VY         1 TEMP              0 ****  ****    0 ROOT
