@<TRIPOS>MOLECULE
3VY
   24    25     1     0     0
SMALL
abcg2


@<TRIPOS>ATOM
      1 C8           0.0130     1.7730     0.4040 cc         1 3VY      -0.213100
      2 C4          -2.7990    -0.3210    -0.3650 ca         1 3VY      -0.154000
      3 C5          -1.6010     0.3150    -0.0380 ca         1 3VY      -0.046200
      4 C2          -1.6570    -2.4400    -0.0360 ca         1 3VY      -0.177000
      5 C9           0.5970     0.5500     0.5670 cd         1 3VY      -0.025400
      6 C11          1.9970     0.2600     0.9740 c3         1 3VY      -0.163200
      7 C12          2.8850    -0.3980    -0.1110 c          1 3VY       0.720000
      8 C3          -2.8080    -1.7040    -0.3580 ca         1 3VY      -0.105000
      9 O14          4.0220    -0.7440     0.2710 o          1 3VY      -0.730000
     10 O13          2.4140    -0.5190    -1.2550 o          1 3VY      -0.730000
     11 C6          -0.4310    -0.4070     0.2890 ca         1 3VY      -0.075800
     12 C1          -0.4710    -1.8040     0.2810 ca         1 3VY      -0.018000
     13 N7          -1.3040     1.6440     0.0330 na         1 3VY      -0.106700
     14 H1           0.4450     2.7550     0.5270 h4         1 3VY       0.196000
     15 H2          -3.6910     0.2380    -0.6180 ha         1 3VY       0.092000
     16 H3          -1.7020    -3.5220    -0.0430 ha         1 3VY       0.093000
     17 H4          -2.6560     2.6500    -1.2120 h1         1 3VY       0.031033
     18 H5          -3.0390     2.7260     0.5140 h1         1 3VY       0.031033
     19 H6          -1.6970     3.6690    -0.1390 h1         1 3VY       0.031033
     20 H7           2.4860     1.1870     1.2920 hc         1 3VY       0.028200
     21 H8           2.0070    -0.3880     1.8580 hc         1 3VY       0.028200
     22 H9          -3.7220    -2.2290    -0.6090 ha         1 3VY       0.085000
     23 H11          0.4120    -2.3820     0.5250 ha         1 3VY       0.129000
     24 C10         -2.2260     2.7230    -0.2130 c3         1 3VY       0.080900
@<TRIPOS>BOND
     1     1     5 2   
     2     1    13 1   
     3     1    14 1   
     4     2     3 ar  
     5     2     8 ar  
     6     2    15 1   
     7     3    11 ar  
     8     3    13 1   
     9     4     8 ar  
    10     4    12 ar  
    11     4    16 1   
    12     5     6 1   
    13     5    11 1   
    14     6     7 1   
    15     6    20 1   
    16     6    21 1   
    17     7     9 1   
    18     7    10 1   
    19     8    22 1   
    20    11    12 ar  
    21    12    23 1   
    22    13    24 1   
    23    17    24 1   
    24    18    24 1   
    25    19    24 1   
@<TRIPOS>SUBSTRUCTURE
     1 3VY         1 TEMP              0 ****  ****    0 ROOT
