@<TRIPOS>MOLECULE
3VZ
   57    60     1     0     0
SMALL
bcc


@<TRIPOS>ATOM
      1 C1          -1.4080     2.4450    -1.1240 ca         1 3VZ      -0.039000
      2 C2          -0.2670     2.4790    -0.3190 ca         1 3VZ      -0.063800
      3 C3           0.0060     1.3710     0.5110 ca         1 3VZ      -0.050200
      4 C4          -0.8100     0.2440     0.5420 ca         1 3VZ      -0.142000
      5 C5          -1.9310     0.2170    -0.2770 cp         1 3VZ      -0.049000
      6 C14          1.6070     2.8790     0.8160 cc         1 3VZ      -0.167100
      7 C15          0.7760     3.4380    -0.1110 cd         1 3VZ      -0.021400
      8 C20         -2.8170    -0.9670    -0.2820 cp         1 3VZ       0.067000
      9 C22         -4.1950    -0.8100    -0.4020 ca         1 3VZ      -0.226000
     10 C23         -5.0370    -1.9270    -0.3930 ca         1 3VZ       0.172600
     11 C24         -4.4820    -3.2010    -0.2590 ca         1 3VZ      -0.274000
     12 C25         -3.1010    -3.3690    -0.1450 ca         1 3VZ       0.172600
     13 O60         -1.0490     5.5320     0.2420 o          1 3VZ      -0.834800
     14 C59         -0.1220     5.8160    -0.5350 c          1 3VZ       0.931600
     15 O64          0.0450     6.8960    -1.1400 o          1 3VZ      -0.834800
     16 C58          0.9540     4.7400    -0.8080 c3         1 3VZ      -0.165200
     17 N13          1.1450     1.6460     1.2140 na         1 3VZ      -0.075400
     18 C37          1.8550     0.7100     2.0530 c3         1 3VZ       0.104600
     19 C38          2.5330    -0.3810     1.2600 ca         1 3VZ      -0.104300
     20 C41          3.4840    -0.0710     0.2940 ca         1 3VZ      -0.109000
     21 C42          4.0960    -1.0760    -0.4400 ca         1 3VZ      -0.129000
     22 C43          3.7810    -2.4180    -0.2350 ca         1 3VZ      -0.076300
     23 C52          4.4640    -3.4980    -1.0410 c3         1 3VZ      -0.015400
     24 C54          5.3090    -4.4110    -0.1520 c3         1 3VZ      -0.083100
     25 C56          3.4640    -4.3090    -1.8640 c3         1 3VZ      -0.083100
     26 C44          2.8280    -2.7220     0.7340 ca         1 3VZ      -0.129000
     27 C45          2.2130    -1.7180     1.4690 ca         1 3VZ      -0.109000
     28 C6          -2.2160     1.3270    -1.1030 ca         1 3VZ      -0.171000
     29 N35         -6.3990    -1.7740    -0.5540 nv         1 3VZ      -0.825200
     30 N33         -2.5560    -4.6360    -0.0780 nv         1 3VZ      -0.825200
     31 C26         -2.2710    -2.2440    -0.1590 ca         1 3VZ      -0.226000
     32 H1          -1.6520     3.2800    -1.7700 ha         1 3VZ       0.153000
     33 H2          -0.5930    -0.5850     1.2040 ha         1 3VZ       0.116000
     34 H3           2.5190     3.2750     1.2400 h4         1 3VZ       0.147000
     35 H4          -4.6260     0.1820    -0.4730 ha         1 3VZ       0.137500
     36 H5          -5.1310    -4.0710    -0.2480 ha         1 3VZ       0.117000
     37 H7           1.9330     5.1600    -0.5530 hc         1 3VZ       0.029700
     38 H8           0.9880     4.5770    -1.8920 hc         1 3VZ       0.029700
     39 H9           2.5860     1.2760     2.6310 h1         1 3VZ       0.054200
     40 H10          1.1620     0.2690     2.7740 h1         1 3VZ       0.054200
     41 H11          3.7550     0.9620     0.1090 ha         1 3VZ       0.134000
     42 H12          4.8370    -0.8140    -1.1870 ha         1 3VZ       0.123500
     43 H13          5.1410    -2.9970    -1.7410 hc         1 3VZ       0.046700
     44 H14          6.0260    -3.8390     0.4390 hc         1 3VZ       0.032533
     45 H15          4.6860    -4.9830     0.5370 hc         1 3VZ       0.032533
     46 H16          5.8690    -5.1240    -0.7590 hc         1 3VZ       0.032533
     47 H17          2.8550    -3.6650    -2.4990 hc         1 3VZ       0.032533
     48 H18          3.9850    -5.0200    -2.5080 hc         1 3VZ       0.032533
     49 H19          2.7900    -4.8800    -1.2220 hc         1 3VZ       0.032533
     50 H20          2.5510    -3.7530     0.9220 ha         1 3VZ       0.123500
     51 H21          1.4720    -1.9800     2.2160 ha         1 3VZ       0.134000
     52 H22         -3.0840     1.2890    -1.7480 ha         1 3VZ       0.119000
     53 H23         -6.7680    -0.8740    -0.2930 hn         1 3VZ       0.382550
     54 H24         -6.9680    -2.5240    -0.1930 hn         1 3VZ       0.382550
     55 H25         -3.1760    -5.3560     0.2570 hn         1 3VZ       0.382550
     56 H26         -1.6540    -4.6950     0.3650 hn         1 3VZ       0.382550
     57 H27         -1.1960    -2.3720    -0.1020 ha         1 3VZ       0.137500
@<TRIPOS>BOND
     1     1     2 ar  
     2     1    28 ar  
     3     1    32 1   
     4     2     3 ar  
     5     2     7 1   
     6     3     4 ar  
     7     3    17 1   
     8     4     5 ar  
     9     4    33 1   
    10     5     8 1   
    11     5    28 ar  
    12     6     7 2   
    13     6    17 1   
    14     6    34 1   
    15     7    16 1   
    16     8     9 ar  
    17     8    31 ar  
    18     9    10 ar  
    19     9    35 1   
    20    10    11 ar  
    21    10    29 1   
    22    11    12 ar  
    23    11    36 1   
    24    12    30 1   
    25    12    31 ar  
    26    13    14 1   
    27    14    15 1   
    28    14    16 1   
    29    16    37 1   
    30    16    38 1   
    31    17    18 1   
    32    18    19 1   
    33    18    39 1   
    34    18    40 1   
    35    19    20 ar  
    36    19    27 ar  
    37    20    21 ar  
    38    20    41 1   
    39    21    22 ar  
    40    21    42 1   
    41    22    23 1   
    42    22    26 ar  
    43    23    24 1   
    44    23    25 1   
    45    23    43 1   
    46    24    44 1   
    47    24    45 1   
    48    24    46 1   
    49    25    47 1   
    50    25    48 1   
    51    25    49 1   
    52    26    27 ar  
    53    26    50 1   
    54    27    51 1   
    55    28    52 1   
    56    29    53 1   
    57    29    54 1   
    58    30    55 1   
    59    30    56 1   
    60    31    57 1   
@<TRIPOS>SUBSTRUCTURE
     1 3VZ         1 TEMP              0 ****  ****    0 ROOT
