@<TRIPOS>MOLECULE
3VZ
   57    60     1     0     0
SMALL
No Charge or Current Charge


@<TRIPOS>ATOM
      1 C1          -1.4160     2.6400    -1.1020 ca         1 3VZ      -0.021000
      2 C2          -0.2670     2.6260    -0.3030 ca         1 3VZ      -0.063800
      3 C3           0.0870     1.5330     0.4350 ca         1 3VZ      -0.050200
      4 C4          -0.6840     0.3610     0.4240 ca         1 3VZ      -0.124000
      5 C5          -1.8610     0.3130    -0.3740 cp         1 3VZ      -0.049000
      6 C14          1.6990     3.1240     0.8140 cc         1 3VZ      -0.217100
      7 C15          0.7480     3.6310    -0.0630 cd         1 3VZ      -0.021400
      8 C20         -2.7060    -0.9250    -0.4210 cp         1 3VZ       0.067000
      9 C22         -4.1140    -0.8490    -0.5530 ca         1 3VZ      -0.208000
     10 C23         -4.8990    -2.0070    -0.5950 ca         1 3VZ       0.311000
     11 C24         -4.3030    -3.2660    -0.5080 ca         1 3VZ      -0.256000
     12 C25         -2.9160    -3.3670    -0.3780 ca         1 3VZ       0.311000
     13 O60          0.3100     6.5820     1.0250 o          1 3VZ      -0.729500
     14 C59         -0.1370     5.9910     0.0530 c          1 3VZ       0.721000
     15 O64         -1.3060     6.0610    -0.2980 o          1 3VZ      -0.729500
     16 C58          0.7860     5.0060    -0.6850 c3         1 3VZ      -0.165200
     17 N13          1.2630     1.8190     1.1150 na         1 3VZ      -0.104700
     18 C37          1.9380     0.8250     1.9720 c3         1 3VZ       0.133900
     19 C38          2.5410    -0.3550     1.2100 ca         1 3VZ      -0.104300
     20 C41          3.2070    -0.1640    -0.0170 ca         1 3VZ      -0.091000
     21 C42          3.7470    -1.2600    -0.7120 ca         1 3VZ      -0.111000
     22 C43          3.6330    -2.5640    -0.1930 ca         1 3VZ      -0.076300
     23 C52          4.2190    -3.7510    -0.9610 c3         1 3VZ      -0.015400
     24 C54          5.3330    -4.4540    -0.1540 c3         1 3VZ      -0.083100
     25 C56          3.1170    -4.7430    -1.3950 c3         1 3VZ      -0.083100
     26 C44          2.9720    -2.7520     1.0380 ca         1 3VZ      -0.111000
     27 C45          2.4320    -1.6570     1.7340 ca         1 3VZ      -0.091000
     28 C6          -2.2100     1.4730    -1.1320 ca         1 3VZ      -0.153000
     29 N35         -6.2550    -1.9100    -0.7180 nv         1 3VZ      -1.074000
     30 N33         -2.3350    -4.5990    -0.2960 nv         1 3VZ      -1.074000
     31 C26         -2.1250    -2.2140    -0.3340 ca         1 3VZ      -0.208000
     32 H1          -1.6860     3.5170    -1.6860 ha         1 3VZ       0.135000
     33 H2          -0.3880    -0.4950     1.0250 ha         1 3VZ       0.098000
     34 H3           2.6030     3.5610     1.2220 h4         1 3VZ       0.197000
     35 H4          -4.5970     0.1210    -0.6090 ha         1 3VZ       0.119500
     36 H5          -4.9140    -4.1630    -0.5430 ha         1 3VZ       0.099000
     37 H7           1.8250     5.3510    -0.6090 hc         1 3VZ       0.029700
     38 H8           0.4530     4.8890    -1.7230 hc         1 3VZ       0.029700
     39 H9           2.7370     1.3310     2.5270 h1         1 3VZ       0.054200
     40 H10          1.2110     0.4580     2.7080 h1         1 3VZ       0.054200
     41 H11          3.3060     0.8340    -0.4380 ha         1 3VZ       0.116000
     42 H12          4.2540    -1.0900    -1.6590 ha         1 3VZ       0.105500
     43 H13          4.6860    -3.3800    -1.8820 hc         1 3VZ       0.046700
     44 H14          6.1150    -3.7370     0.1240 hc         1 3VZ       0.032533
     45 H15          4.9360    -4.9030     0.7640 hc         1 3VZ       0.032533
     46 H16          5.7980    -5.2490    -0.7490 hc         1 3VZ       0.032533
     47 H17          2.3490    -4.2280    -1.9850 hc         1 3VZ       0.032533
     48 H18          3.5400    -5.5440    -2.0130 hc         1 3VZ       0.032533
     49 H19          2.6310    -5.2030    -0.5260 hc         1 3VZ       0.032533
     50 H20          2.8720    -3.7500     1.4600 ha         1 3VZ       0.105500
     51 H21          1.9240    -1.8240     2.6810 ha         1 3VZ       0.116000
     52 H22         -3.0960     1.4630    -1.7610 ha         1 3VZ       0.101000
     53 H23         -6.7060    -1.0010    -0.6350 hn         1 3VZ       0.437750
     54 H24         -6.8330    -2.7390    -0.6060 hn         1 3VZ       0.437750
     55 H25         -2.9180    -5.4250    -0.1890 hn         1 3VZ       0.437750
     56 H26         -1.3480    -4.6800    -0.0610 hn         1 3VZ       0.437750
     57 H27         -1.0470    -2.3130    -0.2470 ha         1 3VZ       0.119500
@<TRIPOS>BOND
     1     1     2 ar  
     2     1    28 ar  
     3     1    32 1   
     4     2     3 ar  
     5     2     7 1   
     6     3     4 ar  
     7     3    17 1   
     8     4     5 ar  
     9     4    33 1   
    10     5     8 1   
    11     5    28 ar  
    12     6     7 2   
    13     6    17 1   
    14     6    34 1   
    15     7    16 1   
    16     8     9 ar  
    17     8    31 ar  
    18     9    10 ar  
    19     9    35 1   
    20    10    11 ar  
    21    10    29 1   
    22    11    12 ar  
    23    11    36 1   
    24    12    30 1   
    25    12    31 ar  
    26    13    14 1   
    27    14    15 1   
    28    14    16 1   
    29    16    37 1   
    30    16    38 1   
    31    17    18 1   
    32    18    19 1   
    33    18    39 1   
    34    18    40 1   
    35    19    20 ar  
    36    19    27 ar  
    37    20    21 ar  
    38    20    41 1   
    39    21    22 ar  
    40    21    42 1   
    41    22    23 1   
    42    22    26 ar  
    43    23    24 1   
    44    23    25 1   
    45    23    43 1   
    46    24    44 1   
    47    24    45 1   
    48    24    46 1   
    49    25    47 1   
    50    25    48 1   
    51    25    49 1   
    52    26    27 ar  
    53    26    50 1   
    54    27    51 1   
    55    28    52 1   
    56    29    53 1   
    57    29    54 1   
    58    30    55 1   
    59    30    56 1   
    60    31    57 1   
@<TRIPOS>SUBSTRUCTURE
     1 3VZ         1 TEMP              0 ****  ****    0 ROOT
