@<TRIPOS>MOLECULE
3W1
   27    28     1     0     0
SMALL
bcc


@<TRIPOS>ATOM
      1 CAH          2.1140     0.3620     0.5090 cc         1 3W1      -0.120300
      2 CAL          3.0630     0.2560    -0.4790 cd         1 3W1      -0.174900
      3 CL1          4.1890     1.4510    -0.9610 cl         1 3W1      -0.068400
      4 CAG          2.9230    -1.0370    -0.9980 cd         1 3W1       0.321200
      5 NAK          1.9540    -1.6760    -0.3690 nc         1 3W1      -0.523800
      6 NAO          1.4850    -0.8250     0.5360 na         1 3W1       0.117400
      7 CAJ          0.3350    -1.1760     1.3460 c3         1 3W1       0.104600
      8 CAN         -0.9540    -0.6460     0.7750 ca         1 3W1      -0.124300
      9 CAE         -1.3660    -1.0020    -0.5050 ca         1 3W1      -0.110500
     10 CAC         -2.5570    -0.5140    -1.0210 ca         1 3W1      -0.118500
     11 CAM         -3.3670     0.3410    -0.2770 ca         1 3W1      -0.074300
     12 CAI         -4.6410     0.8940    -0.8640 c3         1 3W1       0.195100
     13 NAA         -5.6990     0.9860     0.1260 n8         1 3W1      -0.889800
     14 CAD         -2.9550     0.6880     1.0060 ca         1 3W1      -0.118500
     15 CAF         -1.7610     0.2040     1.5220 ca         1 3W1      -0.110500
     16 H1           1.8610     1.1740     1.1710 h4         1 3W1       0.184000
     17 H2           3.4880    -1.5110    -1.7850 h4         1 3W1       0.048100
     18 H3           0.3200    -2.2640     1.4110 h1         1 3W1       0.074200
     19 H4           0.4950    -0.7920     2.3530 h1         1 3W1       0.074200
     20 H5          -0.7580    -1.6700    -1.1050 ha         1 3W1       0.137500
     21 H6          -2.8630    -0.8100    -2.0180 ha         1 3W1       0.141000
     22 H7          -4.4420     1.9040    -1.2350 h1         1 3W1       0.037200
     23 H8          -4.9070     0.3000    -1.7490 h1         1 3W1       0.037200
     24 H9          -6.4950     1.4660    -0.2740 hn         1 3W1       0.342800
     25 H10         -6.0220     0.0560     0.3630 hn         1 3W1       0.342800
     26 H12         -3.5750     1.3410     1.6060 ha         1 3W1       0.141000
     27 H13         -1.4570     0.4930     2.5220 ha         1 3W1       0.137500
@<TRIPOS>BOND
     1     1     2 2   
     2     1     6 1   
     3     1    16 1   
     4     2     3 1   
     5     2     4 1   
     6     4     5 2   
     7     4    17 1   
     8     5     6 1   
     9     6     7 1   
    10     7     8 1   
    11     7    18 1   
    12     7    19 1   
    13     8     9 ar  
    14     8    15 ar  
    15     9    10 ar  
    16     9    20 1   
    17    10    11 ar  
    18    10    21 1   
    19    11    12 1   
    20    11    14 ar  
    21    12    13 1   
    22    12    22 1   
    23    12    23 1   
    24    13    24 1   
    25    13    25 1   
    26    14    15 ar  
    27    14    26 1   
    28    15    27 1   
@<TRIPOS>SUBSTRUCTURE
     1 3W1         1 TEMP              0 ****  ****    0 ROOT
