@<TRIPOS>MOLECULE
3W1
   27    28     1     0     0
SMALL
No Charge or Current Charge


@<TRIPOS>ATOM
      1 CAH          2.1550     0.3570     0.1850 cc         1 3W1      -0.153000
      2 CAL          3.1200    -0.0210    -0.6990 cd         1 3W1      -0.018000
      3 Cl1          4.2910     0.9890    -1.4840 cl         1 3W1      -0.160000
      4 CAG          3.0160    -1.4150    -0.8840 cd         1 3W1       0.255900
      5 NAK          2.0390    -1.9430    -0.1670 nc         1 3W1      -0.523800
      6 NAO          1.5090    -0.8400     0.4870 na         1 3W1       0.138800
      7 CAJ          0.3720    -0.9980     1.4140 c3         1 3W1       0.133900
      8 CAN         -0.9520    -0.4520     0.8770 ca         1 3W1      -0.124300
      9 CAE         -1.3640    -0.7220    -0.4440 ca         1 3W1      -0.092500
     10 CAC         -2.5840    -0.2160    -0.9260 ca         1 3W1      -0.100500
     11 CAM         -3.4120     0.5630    -0.0940 ca         1 3W1      -0.074300
     12 CAI         -4.7310     1.1170    -0.6190 c3         1 3W1       0.195100
     13 NAA         -5.8660     0.2410    -0.2730 n8         1 3W1      -1.000200
     14 CAD         -3.0030     0.8280     1.2270 ca         1 3W1      -0.100500
     15 CAF         -1.7840     0.3230     1.7100 ca         1 3W1      -0.092500
     16 H1           1.8780     1.3170     0.6010 h4         1 3W1       0.166000
     17 H2           3.6220    -2.0520    -1.5150 h4         1 3W1       0.048100
     18 H3           0.2500    -2.0640     1.6430 h1         1 3W1       0.074200
     19 H4           0.6300    -0.4900     2.3510 h1         1 3W1       0.074200
     20 H5          -0.7420    -1.3260    -1.1010 ha         1 3W1       0.119500
     21 H6          -2.8870    -0.4320    -1.9490 ha         1 3W1       0.123000
     22 H7          -4.9090     2.1150    -0.1920 h1         1 3W1       0.037200
     23 H8          -4.6820     1.2200    -1.7120 h1         1 3W1       0.037200
     24 H9          -6.7150     0.6030    -0.7240 hn         1 3W1       0.398000
     25 H10         -5.7220    -0.6720    -0.7210 hn         1 3W1       0.398000
     26 H12         -3.6350     1.4250     1.8810 ha         1 3W1       0.123000
     27 H13         -1.4860     0.5370     2.7350 ha         1 3W1       0.119500
@<TRIPOS>BOND
     1     1     2 2   
     2     1     6 1   
     3     1    16 1   
     4     2     3 1   
     5     2     4 1   
     6     4     5 2   
     7     4    17 1   
     8     5     6 1   
     9     6     7 1   
    10     7     8 1   
    11     7    18 1   
    12     7    19 1   
    13     8     9 ar  
    14     8    15 ar  
    15     9    10 ar  
    16     9    20 1   
    17    10    11 ar  
    18    10    21 1   
    19    11    12 1   
    20    11    14 ar  
    21    12    13 1   
    22    12    22 1   
    23    12    23 1   
    24    13    24 1   
    25    13    25 1   
    26    14    15 ar  
    27    14    26 1   
    28    15    27 1   
@<TRIPOS>SUBSTRUCTURE
     1 3W1         1 TEMP              0 ****  ****    0 ROOT
