@<TRIPOS>MOLECULE
3W2
   55    59     1     0     0
SMALL
No Charge or Current Charge


@<TRIPOS>ATOM
      1 C6          11.4960   -10.3430   -18.7880 c6         1 3W2      -0.105400
      2 C9          10.4580   -11.0010   -22.5250 c          1 3W2       0.511600
      3 C8          11.1000   -11.2300   -21.1460 c6         1 3W2      -0.201400
      4 C18          5.6170    -9.0400   -15.5250 ca         1 3W2      -0.159000
      5 C16          7.1180   -11.3140   -15.0560 ca         1 3W2      -0.067000
      6 C19          4.6260    -8.0260   -15.6050 cc         1 3W2      -0.180100
      7 C26         10.2070    -7.3520   -22.3890 cc         1 3W2      -0.216000
      8 C1          10.6450   -10.1900   -20.0750 c6         1 3W2       0.194000
      9 C2           9.1510   -10.4150   -19.7070 c6         1 3W2      -0.105400
     10 C3           8.6890    -9.4800   -18.5640 c6         1 3W2       0.102500
     11 N4           9.5590    -9.6150   -17.3620 n          1 3W2      -0.410800
     12 C5          11.0000    -9.4020   -17.6650 c6         1 3W2       0.102500
     13 O7          10.8140    -8.8400   -20.5840 os         1 3W2      -0.326100
     14 C11          9.1470   -10.3300   -16.2130 c          1 3W2       0.612700
     15 C12          7.7050   -10.2340   -15.7680 ca         1 3W2      -0.156600
     16 O13          9.9610   -10.9480   -15.5360 o          1 3W2      -0.603100
     17 C14          6.9390    -9.0620   -15.9880 ca         1 3W2      -0.022000
     18 C15          5.7810   -11.2480   -14.6050 ca         1 3W2      -0.087000
     19 C17          5.0370   -10.0870   -14.8570 ca         1 3W2      -0.056000
     20 N20          3.4990    -8.5450   -14.9720 na         1 3W2       0.004500
     21 N21          3.7140    -9.8420   -14.4840 nc         1 3W2      -0.281400
     22 C22         10.4850    -8.5740   -21.8810 cd         1 3W2       0.043100
     23 C23         10.2410    -9.5640   -22.8300 cd         1 3W2       0.096500
     24 N24          9.8110    -9.0360   -23.9670 nc         1 3W2      -0.438800
     25 N25          9.8000    -7.6630   -23.6970 na         1 3W2       0.140800
     26 C27          9.3570    -6.7020   -24.7580 c3         1 3W2       0.118000
     27 C28          7.8820    -6.9920   -25.1450 c3         1 3W2      -0.103100
     28 C29          9.4510    -5.2290   -24.2690 c3         1 3W2      -0.103100
     29 C30         10.2570    -6.8520   -26.0140 c3         1 3W2      -0.103100
     30 H1          11.4540   -11.3820   -18.4320 hc         1 3W2       0.064450
     31 H2          12.5510   -10.1300   -19.0050 hc         1 3W2       0.064450
     32 H3          10.9660   -12.2730   -20.8320 hc         1 3W2       0.082700
     33 H4          12.1750   -11.0650   -21.2960 hc         1 3W2       0.082700
     34 H5           7.6980   -12.2140   -14.8580 ha         1 3W2       0.126000
     35 H6           4.6230    -7.0290   -16.0350 h4         1 3W2       0.228000
     36 H7          10.2330    -6.3610   -21.9560 h4         1 3W2       0.167000
     37 H8           8.5070   -10.2610   -20.5830 hc         1 3W2       0.064450
     38 H9           9.0000   -11.4580   -19.3970 hc         1 3W2       0.064450
     39 H10          8.7100    -8.4350   -18.9080 h1         1 3W2       0.065450
     40 H11          7.6440    -9.7250   -18.3300 h1         1 3W2       0.065450
     41 H12         11.6110    -9.5490   -16.7640 h1         1 3W2       0.065450
     42 H13         11.1440    -8.3570   -17.9750 h1         1 3W2       0.065450
     43 H14          7.3590    -8.1920   -16.4870 ha         1 3W2       0.120000
     44 H15          5.3380   -12.0840   -14.0680 ha         1 3W2       0.131000
     45 H16          2.6020    -8.0820   -14.8480 hn         1 3W2       0.373000
     46 H17          7.2270    -6.9100   -24.2690 hc         1 3W2       0.052811
     47 H18          7.5270    -6.2820   -25.9020 hc         1 3W2       0.052811
     48 H19          7.7700    -8.0020   -25.5570 hc         1 3W2       0.052811
     49 H20          8.8040    -5.0600   -23.3990 hc         1 3W2       0.052811
     50 H21         10.4800    -4.9720   -23.9900 hc         1 3W2       0.052811
     51 H22          9.1350    -4.5340   -25.0570 hc         1 3W2       0.052811
     52 H23         11.3090    -6.6740   -25.7620 hc         1 3W2       0.052811
     53 H24         10.1770    -7.8580   -26.4430 hc         1 3W2       0.052811
     54 H25          9.9680    -6.1350   -26.7930 hc         1 3W2       0.052811
     55 O10         10.1610   -11.9330   -23.2660 o          1 3W2      -0.504100
@<TRIPOS>BOND
     1     1     8 1   
     2     1    12 1   
     3     1    30 1   
     4     1    31 1   
     5     2     3 1   
     6     2    23 1   
     7     2    55 2   
     8     3     8 1   
     9     3    32 1   
    10     3    33 1   
    11     4     6 2   
    12     4    17 ar  
    13     4    19 ar  
    14     5    15 ar  
    15     5    18 ar  
    16     5    34 1   
    17     6    20 1   
    18     6    35 1   
    19     7    22 2   
    20     7    25 1   
    21     7    36 1   
    22     8     9 1   
    23     8    13 1   
    24     9    10 1   
    25     9    37 1   
    26     9    38 1   
    27    10    11 1   
    28    10    39 1   
    29    10    40 1   
    30    11    12 1   
    31    11    14 1   
    32    12    41 1   
    33    12    42 1   
    34    13    22 1   
    35    14    15 1   
    36    14    16 2   
    37    15    17 ar  
    38    17    43 1   
    39    18    19 ar  
    40    18    44 1   
    41    19    21 2   
    42    20    21 1   
    43    20    45 1   
    44    22    23 1   
    45    23    24 2   
    46    24    25 1   
    47    25    26 1   
    48    26    27 1   
    49    26    28 1   
    50    26    29 1   
    51    27    46 1   
    52    27    47 1   
    53    27    48 1   
    54    28    49 1   
    55    28    50 1   
    56    28    51 1   
    57    29    52 1   
    58    29    53 1   
    59    29    54 1   
@<TRIPOS>SUBSTRUCTURE
     1 3W2         1 TEMP              0 ****  ****    0 ROOT
