@<TRIPOS>MOLECULE
3W2
   55    59     1     0     0
SMALL
abcg2


@<TRIPOS>ATOM
      1 C6          11.4470   -10.3610   -18.7980 c6         1 3W2      -0.105400
      2 C9          10.3390   -10.9980   -22.4800 c          1 3W2       0.511600
      3 C8          10.9550   -11.2340   -21.1090 c6         1 3W2      -0.201400
      4 C18          5.6690    -8.9450   -15.4790 ca         1 3W2      -0.159000
      5 C16          7.1520   -11.2930   -15.4600 ca         1 3W2      -0.067000
      6 C19          4.6390    -8.0090   -15.3510 cc         1 3W2      -0.180100
      7 C26         10.1740    -7.3970   -22.3970 cc         1 3W2      -0.216000
      8 C1          10.5890   -10.1900   -20.0460 c6         1 3W2       0.194000
      9 C2           9.1040   -10.2520   -19.6730 c6         1 3W2      -0.105400
     10 C3           8.7460    -9.2960   -18.5380 c6         1 3W2       0.102500
     11 N4           9.6080    -9.5320   -17.3800 n          1 3W2      -0.410800
     12 C5          11.0340    -9.4080   -17.6790 c6         1 3W2       0.102500
     13 O7          10.8900    -8.8380   -20.5390 os         1 3W2      -0.326100
     14 C11          9.2060   -10.0660   -16.2030 c          1 3W2       0.612700
     15 C12          7.7420   -10.0640   -15.8820 ca         1 3W2      -0.156600
     16 O13         10.0020   -10.5210   -15.3720 o          1 3W2      -0.603100
     17 C14          7.0160    -8.8970   -15.8920 ca         1 3W2      -0.022000
     18 C15          5.8400   -11.3740   -15.0740 ca         1 3W2      -0.087000
     19 C17          5.0740   -10.1860   -15.0780 ca         1 3W2      -0.056000
     20 N20          3.5740    -8.7000   -14.9170 na         1 3W2       0.004500
     21 N21          3.7830   -10.0170   -14.7350 nc         1 3W2      -0.281400
     22 C22         10.4420    -8.6050   -21.7890 cd         1 3W2       0.043100
     23 C23         10.1540    -9.5880   -22.7560 cd         1 3W2       0.096500
     24 N24          9.7290    -9.0140   -23.8970 nc         1 3W2      -0.438800
     25 N25          9.7540    -7.7080   -23.6620 na         1 3W2       0.140800
     26 C27          9.3430    -6.7650   -24.7420 c3         1 3W2       0.118000
     27 C28          7.9040    -7.1010   -25.1420 c3         1 3W2      -0.103100
     28 C29          9.4220    -5.3330   -24.2200 c3         1 3W2      -0.103100
     29 C30         10.2990    -6.9510   -25.9230 c3         1 3W2      -0.103100
     30 H1          11.3440   -11.3920   -18.4540 hc         1 3W2       0.064450
     31 H2          12.4940   -10.1960   -19.0560 hc         1 3W2       0.064450
     32 H3          10.6750   -12.2270   -20.7580 hc         1 3W2       0.082700
     33 H4          12.0420   -11.2300   -21.2530 hc         1 3W2       0.082700
     34 H5           7.7710   -12.1810   -15.4540 ha         1 3W2       0.126000
     35 H6           4.5940    -6.9490   -15.5340 h4         1 3W2       0.228000
     36 H7          10.2470    -6.3900   -22.0330 h4         1 3W2       0.167000
     37 H8           8.4810   -10.0270   -20.5410 hc         1 3W2       0.064450
     38 H9           8.8770   -11.2770   -19.3670 hc         1 3W2       0.064450
     39 H10          8.8730    -8.2590   -18.8610 h1         1 3W2       0.065450
     40 H11          7.7090    -9.4360   -18.2590 h1         1 3W2       0.065450
     41 H12         11.5940    -9.6170   -16.7740 h1         1 3W2       0.065450
     42 H13         11.2250    -8.3750   -17.9770 h1         1 3W2       0.065450
     43 H14          7.4670    -7.9640   -16.2030 ha         1 3W2       0.120000
     44 H15          5.4000   -12.3150   -14.7710 ha         1 3W2       0.131000
     45 H16          2.6590    -8.3190   -14.7240 hn         1 3W2       0.373000
     46 H17          7.2340    -6.9920   -24.2870 hc         1 3W2       0.052811
     47 H18          7.5810    -6.4160   -25.9270 hc         1 3W2       0.052811
     48 H19          7.8330    -8.1200   -25.5180 hc         1 3W2       0.052811
     49 H20          8.7540    -5.1780   -23.3720 hc         1 3W2       0.052811
     50 H21         10.4390    -5.0670   -23.9270 hc         1 3W2       0.052811
     51 H22          9.1150    -4.6610   -25.0200 hc         1 3W2       0.052811
     52 H23         11.3250    -6.7300   -25.6240 hc         1 3W2       0.052811
     53 H24         10.2550    -7.9720   -26.3010 hc         1 3W2       0.052811
     54 H25         10.0170    -6.2690   -26.7260 hc         1 3W2       0.052811
     55 O10         10.0870   -11.9120   -23.2520 o          1 3W2      -0.504100
@<TRIPOS>BOND
     1     1     8 1   
     2     1    12 1   
     3     1    30 1   
     4     1    31 1   
     5     2     3 1   
     6     2    23 1   
     7     2    55 2   
     8     3     8 1   
     9     3    32 1   
    10     3    33 1   
    11     4     6 2   
    12     4    17 ar  
    13     4    19 ar  
    14     5    15 ar  
    15     5    18 ar  
    16     5    34 1   
    17     6    20 1   
    18     6    35 1   
    19     7    22 2   
    20     7    25 1   
    21     7    36 1   
    22     8     9 1   
    23     8    13 1   
    24     9    10 1   
    25     9    37 1   
    26     9    38 1   
    27    10    11 1   
    28    10    39 1   
    29    10    40 1   
    30    11    12 1   
    31    11    14 1   
    32    12    41 1   
    33    12    42 1   
    34    13    22 1   
    35    14    15 1   
    36    14    16 2   
    37    15    17 ar  
    38    17    43 1   
    39    18    19 ar  
    40    18    44 1   
    41    19    21 2   
    42    20    21 1   
    43    20    45 1   
    44    22    23 1   
    45    23    24 2   
    46    24    25 1   
    47    25    26 1   
    48    26    27 1   
    49    26    28 1   
    50    26    29 1   
    51    27    46 1   
    52    27    47 1   
    53    27    48 1   
    54    28    49 1   
    55    28    50 1   
    56    28    51 1   
    57    29    52 1   
    58    29    53 1   
    59    29    54 1   
@<TRIPOS>SUBSTRUCTURE
     1 3W2         1 TEMP              0 ****  ****    0 ROOT
