@<TRIPOS>MOLECULE
3W3
   25    25     1     0     0
SMALL
abcg2


@<TRIPOS>ATOM
      1 CAC          0.9550     0.9340     0.2770 ca         1 3W3      -0.202000
      2 CAB         -0.4250     1.0750     0.3020 ca         1 3W3       0.032500
      3 CAA         -1.2370    -0.0130     0.0350 ca         1 3W3      -0.324500
      4 SAG         -2.9890     0.1510     0.0800 sy         1 3W3       1.133600
      5 OAL         -3.5770    -0.9890     0.7710 o          1 3W3      -0.548000
      6 OAM         -3.3080     1.4860     0.5700 o          1 3W3      -0.548000
      7 NAN         -3.3700    -0.0580    -1.5160 n8         1 3W3      -1.003100
      8 CAF         -0.6800    -1.2580    -0.2570 ca         1 3W3       0.032500
      9 CAE          0.6880    -1.4010    -0.2830 ca         1 3W3      -0.202000
     10 CAD          1.5200    -0.3060    -0.0160 ca         1 3W3       0.205100
     11 OAH          2.8340    -0.5430    -0.0690 os         1 3W3      -0.337100
     12 CAI          3.7430     0.5060     0.2600 c3         1 3W3       0.194800
     13 CAJ          5.1200    -0.0640     0.2240 c2         1 3W3      -0.227200
     14 CAK          6.1060     0.4530    -0.4970 c2         1 3W3      -0.289000
     15 HAC          1.5650     1.8020     0.4830 ha         1 3W3       0.128000
     16 HAB         -0.8500     2.0430     0.5300 ha         1 3W3       0.136500
     17 HAO         -4.3570    -0.2640    -1.6370 hn         1 3W3       0.471000
     18 HAN         -3.1040     0.7350    -2.0900 hn         1 3W3       0.471000
     19 HAF         -1.3090    -2.1130    -0.4660 ha         1 3W3       0.136500
     20 HAE          1.1290    -2.3630    -0.5090 ha         1 3W3       0.128000
     21 HAI          3.6460     1.3370    -0.4470 h1         1 3W3       0.045200
     22 HAJ          3.5180     0.8870     1.2620 h1         1 3W3       0.045200
     23 H1           5.3020    -0.9250     0.8600 ha         1 3W3       0.186000
     24 HAL          5.9530     1.3140    -1.1370 ha         1 3W3       0.167500
     25 H2           7.1040     0.0380    -0.4680 ha         1 3W3       0.167500
@<TRIPOS>BOND
     1     1     2 ar  
     2     1    10 ar  
     3     1    15 1   
     4     2     3 ar  
     5     2    16 1   
     6     3     4 1   
     7     3     8 ar  
     8     4     5 2   
     9     4     6 2   
    10     4     7 1   
    11     7    17 1   
    12     7    18 1   
    13     8     9 ar  
    14     8    19 1   
    15     9    10 ar  
    16     9    20 1   
    17    10    11 1   
    18    11    12 1   
    19    12    13 1   
    20    12    21 1   
    21    12    22 1   
    22    13    14 2   
    23    13    23 1   
    24    14    24 1   
    25    14    25 1   
@<TRIPOS>SUBSTRUCTURE
     1 3W3         1 TEMP              0 ****  ****    0 ROOT
