@<TRIPOS>MOLECULE
3W3
   25    25     1     0     0
SMALL
No Charge or Current Charge


@<TRIPOS>ATOM
      1 CAC          0.8530     0.9210     0.3670 ca         1 3W3      -0.202000
      2 CAB         -0.5510     0.9800     0.3360 ca         1 3W3       0.032500
      3 CAA         -1.2980    -0.1740     0.0230 ca         1 3W3      -0.324500
      4 SAG         -3.0860    -0.1090    -0.0170 sy         1 3W3       1.133600
      5 OAL         -3.6550    -1.4340     0.2280 o          1 3W3      -0.548000
      6 OAM         -3.5580     1.0990     0.6540 o          1 3W3      -0.548000
      7 NAN         -3.3630     0.1890    -1.6000 n8         1 3W3      -1.003100
      8 CAF         -0.6350    -1.3850    -0.2580 ca         1 3W3       0.032500
      9 CAE          0.7680    -1.4350    -0.2250 ca         1 3W3      -0.202000
     10 CAD          1.5180    -0.2910     0.0850 ca         1 3W3       0.205100
     11 OAH          2.8920    -0.4080     0.1000 os         1 3W3      -0.337100
     12 CAI          3.7500     0.7020     0.4050 c3         1 3W3       0.194800
     13 CAJ          5.1780     0.2060     0.3240 c2         1 3W3      -0.227200
     14 CAK          5.9300     0.1690    -0.7900 c2         1 3W3      -0.289000
     15 HAC          1.4040     1.8240     0.6110 ha         1 3W3       0.128000
     16 HAB         -1.0500     1.9230     0.5580 ha         1 3W3       0.136500
     17 HAO         -3.9620     1.0090    -1.5370 hn         1 3W3       0.471000
     18 HAN         -2.4680     0.5640    -1.9050 hn         1 3W3       0.471000
     19 HAF         -1.1990    -2.2840    -0.5020 ha         1 3W3       0.136500
     20 HAE          1.2800    -2.3690    -0.4420 ha         1 3W3       0.128000
     21 HAI          3.5980     1.5190    -0.3130 h1         1 3W3       0.045200
     22 HAJ          3.5470     1.0840     1.4140 h1         1 3W3       0.045200
     23 H1           5.5800    -0.1390     1.2780 ha         1 3W3       0.186000
     24 HAL          5.5460     0.5050    -1.7550 ha         1 3W3       0.167500
     25 H2           6.9560    -0.2040    -0.7750 ha         1 3W3       0.167500
@<TRIPOS>BOND
     1     1     2 ar  
     2     1    10 ar  
     3     1    15 1   
     4     2     3 ar  
     5     2    16 1   
     6     3     4 1   
     7     3     8 ar  
     8     4     5 2   
     9     4     6 2   
    10     4     7 1   
    11     7    17 1   
    12     7    18 1   
    13     8     9 ar  
    14     8    19 1   
    15     9    10 ar  
    16     9    20 1   
    17    10    11 1   
    18    11    12 1   
    19    12    13 1   
    20    12    21 1   
    21    12    22 1   
    22    13    14 2   
    23    13    23 1   
    24    14    24 1   
    25    14    25 1   
@<TRIPOS>SUBSTRUCTURE
     1 3W3         1 TEMP              0 ****  ****    0 ROOT
