@<TRIPOS>MOLECULE
3W4
   65    69     1     0     0
SMALL
No Charge or Current Charge


@<TRIPOS>ATOM
      1 C1           3.0000     0.7730     1.3920 ca         1 3W4      -0.060500
      2 C2           1.7840     1.4790     1.3920 ca         1 3W4      -0.152500
      3 C3           1.6450     2.6430     0.6110 ca         1 3W4       0.132100
      4 C4           2.7280     3.1090    -0.1500 ca         1 3W4      -0.152500
      5 C5           3.9460     2.4040    -0.1510 ca         1 3W4      -0.060500
      6 C6           4.0830     1.2340     0.6180 ca         1 3W4       0.003000
      7 C7           5.3230     0.5140     0.6170 cg         1 3W4      -0.104000
      8 C8           6.3720    -0.0980     0.6040 c1         1 3W4      -0.149100
      9 C9           7.6500    -0.8420     0.5590 c6         1 3W4       0.237100
     10 C10          8.7470    -0.0530    -0.2640 c6         1 3W4       0.129800
     11 N1           9.3050    -0.8770    -1.3940 n3         1 3W4      -0.676600
     12 C11          9.9230    -2.1250    -0.8420 c6         1 3W4       0.146300
     13 C12          8.8580    -2.9870    -0.0910 c6         1 3W4      -0.104900
     14 C13          7.4790    -2.2550    -0.1060 c6         1 3W4      -0.049700
     15 C14          7.1020    -2.0790    -1.6120 c6         1 3W4      -0.104900
     16 C15          8.2010    -1.2380    -2.3380 c6         1 3W4       0.146300
     17 O1           8.0460    -0.9860     1.9280 oh         1 3W4      -0.644000
     18 O2           0.4690     3.3590     0.6030 os         1 3W4      -0.253200
     19 C16         -0.7710     2.7610     0.6240 ca         1 3W4       0.130100
     20 C17         -1.8040     3.3610     1.3560 ca         1 3W4      -0.139500
     21 C18         -3.0830     2.7790     1.3840 ca         1 3W4      -0.055500
     22 C19         -3.3510     1.5880     0.6700 ca         1 3W4      -0.164600
     23 C20         -2.3030     0.9980    -0.0800 ca         1 3W4      -0.055500
     24 C21         -1.0250     1.5840    -0.1040 ca         1 3W4      -0.139500
     25 C22         -4.7430     0.9900     0.7240 c          1 3W4       0.615700
     26 O3          -5.6490     1.5060     1.3640 o          1 3W4      -0.586100
     27 N2          -4.9460    -0.1740     0.0140 ns         1 3W4      -0.502900
     28 C23         -6.2110    -0.9040    -0.0830 c6         1 3W4       0.142700
     29 C24         -5.9280    -2.3930    -0.4110 c6         1 3W4      -0.104400
     30 C25         -7.2150    -3.2520    -0.4670 c6         1 3W4      -0.054400
     31 C26         -8.1930    -2.7540    -1.5620 c6         1 3W4      -0.305400
     32 S1          -8.7010    -1.0290    -1.3240 s6         1 3W4       1.085000
     33 O4          -9.3920    -0.9110    -0.0330 o          1 3W4      -0.511500
     34 O5          -9.3500    -0.5510    -2.5510 o          1 3W4      -0.511500
     35 C27         -7.0730    -0.2570    -1.1850 c6         1 3W4      -0.328400
     36 H1           3.1020    -0.1270     1.9940 ha         1 3W4       0.124000
     37 H2           0.9560     1.1240     2.0010 ha         1 3W4       0.132000
     38 H4           2.6230     4.0140    -0.7430 ha         1 3W4       0.132000
     39 H5           4.7800     2.7680    -0.7480 ha         1 3W4       0.124000
     40 H101         8.3180     0.8780    -0.6640 h1         1 3W4       0.062700
     41 H102         9.5590     0.2530     0.4120 h1         1 3W4       0.062700
     42 H13          6.7190    -2.8500     0.4200 hc         1 3W4       0.071700
     43 HA           7.6950    -0.1950     2.3890 ho         1 3W4       0.448000
     44 H111        10.3700    -2.7230    -1.6500 h1         1 3W4       0.055200
     45 H112        10.7390    -1.8720    -0.1480 h1         1 3W4       0.055200
     46 H151         7.7430    -0.3280    -2.7550 h1         1 3W4       0.055200
     47 H152         8.5950    -1.8130    -3.1890 h1         1 3W4       0.055200
     48 H121         8.7700    -3.9710    -0.5720 hc         1 3W4       0.052200
     49 H122         9.1880    -3.1810     0.9390 hc         1 3W4       0.052200
     50 H141         7.0090    -3.0610    -2.0950 hc         1 3W4       0.052200
     51 H142         6.1220    -1.5960    -1.7230 hc         1 3W4       0.052200
     52 H17         -1.6110     4.2770     1.9080 ha         1 3W4       0.134500
     53 H21         -0.2350     1.1240    -0.6930 ha         1 3W4       0.134500
     54 H18         -3.8670     3.2610     1.9650 ha         1 3W4       0.128000
     55 H20         -2.4580     0.0870    -0.6530 ha         1 3W4       0.128000
     56 HB          -4.1490    -0.5420    -0.4860 hn         1 3W4       0.315500
     57 H23         -6.7290    -0.8390     0.8890 h1         1 3W4       0.100700
     58 H241        -5.3890    -2.4720    -1.3660 hc         1 3W4       0.055700
     59 H242        -5.2570    -2.8090     0.3530 hc         1 3W4       0.055700
     60 H271        -7.2650     0.8000    -0.9710 h1         1 3W4       0.111700
     61 H272        -6.6030    -0.3510    -2.1710 h1         1 3W4       0.111700
     62 H251        -6.9460    -4.3000    -0.6660 hc         1 3W4       0.066700
     63 H252        -7.7110    -3.2470     0.5150 hc         1 3W4       0.066700
     64 H261        -7.7290    -2.7960    -2.5560 h1         1 3W4       0.104200
     65 H262        -9.1180    -3.3430    -1.5710 h1         1 3W4       0.104200
@<TRIPOS>BOND
     1     1     2 ar  
     2     1     6 ar  
     3     1    36 1   
     4     2     3 ar  
     5     2    37 1   
     6     3     4 ar  
     7     3    18 1   
     8     4     5 ar  
     9     4    38 1   
    10     5     6 ar  
    11     5    39 1   
    12     6     7 1   
    13     7     8 3   
    14     8     9 1   
    15     9    10 1   
    16     9    14 1   
    17     9    17 1   
    18    10    11 1   
    19    10    40 1   
    20    10    41 1   
    21    11    12 1   
    22    11    16 1   
    23    12    13 1   
    24    12    44 1   
    25    12    45 1   
    26    13    14 1   
    27    13    48 1   
    28    13    49 1   
    29    14    15 1   
    30    14    42 1   
    31    15    16 1   
    32    15    50 1   
    33    15    51 1   
    34    16    46 1   
    35    16    47 1   
    36    17    43 1   
    37    18    19 1   
    38    19    20 ar  
    39    19    24 ar  
    40    20    21 ar  
    41    20    52 1   
    42    21    22 ar  
    43    21    54 1   
    44    22    23 ar  
    45    22    25 1   
    46    23    24 ar  
    47    23    55 1   
    48    24    53 1   
    49    25    26 2   
    50    25    27 1   
    51    27    28 1   
    52    27    56 1   
    53    28    29 1   
    54    28    35 1   
    55    28    57 1   
    56    29    30 1   
    57    29    58 1   
    58    29    59 1   
    59    30    31 1   
    60    30    62 1   
    61    30    63 1   
    62    31    32 1   
    63    31    64 1   
    64    31    65 1   
    65    32    33 2   
    66    32    34 2   
    67    32    35 1   
    68    35    60 1   
    69    35    61 1   
@<TRIPOS>SUBSTRUCTURE
     1 3W4         1 TEMP              0 ****  ****    0 ROOT
