@<TRIPOS>MOLECULE
3W4
   65    69     1     0     0
SMALL
bcc


@<TRIPOS>ATOM
      1 C1           2.9950     0.6710     0.9880 ca         1 3W4      -0.078500
      2 C2           1.7540     1.2730     0.8760 ca         1 3W4      -0.170500
      3 C3           1.5900     2.3490     0.0110 ca         1 3W4       0.132100
      4 C4           2.6650     2.8230    -0.7320 ca         1 3W4      -0.170500
      5 C5           3.9040     2.2210    -0.6070 ca         1 3W4      -0.078500
      6 C6           4.0880     1.1340     0.2520 ca         1 3W4       0.003000
      7 C7           5.3640     0.5110     0.3790 cg         1 3W4      -0.104000
      8 C8           6.4380    -0.0250     0.4970 c1         1 3W4      -0.149100
      9 C9           7.7580    -0.6460     0.6590 c6         1 3W4       0.213900
     10 C10          8.8340     0.1200    -0.1800 c6         1 3W4       0.129800
     11 N1           9.6240    -0.7730    -1.0020 n3         1 3W4      -0.676600
     12 C11         10.2090    -1.8240    -0.1750 c6         1 3W4       0.146300
     13 C12          9.1170    -2.7370     0.4240 c6         1 3W4      -0.104900
     14 C13          7.7550    -2.0960     0.1380 c6         1 3W4      -0.049700
     15 C14          7.5510    -2.0790    -1.3770 c6         1 3W4      -0.104900
     16 C15          8.7660    -1.3690    -2.0200 c6         1 3W4       0.146300
     17 O1           8.0860    -0.6950     2.0330 oh         1 3W4      -0.581800
     18 O2           0.4090     3.0170    -0.1190 os         1 3W4      -0.253200
     19 C16         -0.7650     2.3490     0.0890 ca         1 3W4       0.130100
     20 C17         -1.6560     2.8630     1.0200 ca         1 3W4      -0.157500
     21 C18         -2.8700     2.2290     1.2240 ca         1 3W4      -0.073500
     22 C19         -3.2100     1.0940     0.4930 ca         1 3W4      -0.164600
     23 C20         -2.3030     0.5930    -0.4400 ca         1 3W4      -0.073500
     24 C21         -1.0820     1.2130    -0.6440 ca         1 3W4      -0.157500
     25 C22         -4.5140     0.4260     0.7770 c          1 3W4       0.682700
     26 O3          -5.0300     0.4810     1.8840 o          1 3W4      -0.586100
     27 N2          -5.0690    -0.2400    -0.2540 ns         1 3W4      -0.569900
     28 C23         -6.3080    -0.9760    -0.1370 c6         1 3W4       0.142700
     29 C24         -6.3620    -2.0490    -1.2210 c6         1 3W4      -0.104400
     30 C25         -7.6110    -2.9230    -1.1450 c6         1 3W4      -0.054400
     31 C26         -8.9030    -2.1350    -1.3130 c6         1 3W4      -0.194600
     32 S1          -9.0470    -0.8940    -0.0380 s6         1 3W4       1.005000
     33 O4          -9.0330    -1.5620     1.2670 o          1 3W4      -0.582300
     34 O5         -10.1600     0.0050    -0.3390 o          1 3W4      -0.582300
     35 C27         -7.5010    -0.0150    -0.2230 c6         1 3W4      -0.217600
     36 H1           3.1180    -0.1650     1.6630 ha         1 3W4       0.142000
     37 H2           0.9280     0.9000     1.4680 ha         1 3W4       0.150000
     38 H4           2.5320     3.6630    -1.4020 ha         1 3W4       0.150000
     39 H5           4.7370     2.5930    -1.1890 ha         1 3W4       0.142000
     40 H101         8.3610     0.8580    -0.8320 h1         1 3W4       0.062700
     41 H102         9.4910     0.6670     0.5010 h1         1 3W4       0.062700
     42 H13          6.9540    -2.6560     0.6260 hc         1 3W4       0.071700
     43 HA           8.1710     0.2070     2.3610 ho         1 3W4       0.409000
     44 H111        10.9110    -2.3980    -0.7840 h1         1 3W4       0.055200
     45 H112        10.7930    -1.3470     0.6150 h1         1 3W4       0.055200
     46 H151         8.4410    -0.5830    -2.7050 h1         1 3W4       0.055200
     47 H152         9.3670    -2.0680    -2.6060 h1         1 3W4       0.055200
     48 H121         9.1330    -3.7260    -0.0410 hc         1 3W4       0.052200
     49 H122         9.2720    -2.8930     1.4910 hc         1 3W4       0.052200
     50 H141         7.4600    -3.1050    -1.7380 hc         1 3W4       0.052200
     51 H142         6.6170    -1.5740    -1.6350 hc         1 3W4       0.052200
     52 H17         -1.3990     3.7510     1.5830 ha         1 3W4       0.152500
     53 H21         -0.3860     0.8070    -1.3670 ha         1 3W4       0.152500
     54 H18         -3.5570     2.6270     1.9590 ha         1 3W4       0.146000
     55 H20         -2.5260    -0.3040    -1.0030 ha         1 3W4       0.146000
     56 HB          -4.7050    -0.0960    -1.1840 hn         1 3W4       0.315500
     57 H23         -6.3170    -1.4580     0.8430 h1         1 3W4       0.100700
     58 H241        -6.3160    -1.5710    -2.2060 hc         1 3W4       0.055700
     59 H242        -5.4790    -2.6820    -1.1300 hc         1 3W4       0.055700
     60 H271        -7.4790     0.7300     0.5750 h1         1 3W4       0.111700
     61 H272        -7.5320     0.4990    -1.1860 h1         1 3W4       0.111700
     62 H251        -7.5720    -3.6660    -1.9410 hc         1 3W4       0.066700
     63 H252        -7.6320    -3.4780    -0.2050 hc         1 3W4       0.066700
     64 H261        -8.9360    -1.6100    -2.2690 h1         1 3W4       0.104200
     65 H262        -9.7900    -2.7670    -1.2290 h1         1 3W4       0.104200
@<TRIPOS>BOND
     1     1     2 ar  
     2     1     6 ar  
     3     1    36 1   
     4     2     3 ar  
     5     2    37 1   
     6     3     4 ar  
     7     3    18 1   
     8     4     5 ar  
     9     4    38 1   
    10     5     6 ar  
    11     5    39 1   
    12     6     7 1   
    13     7     8 3   
    14     8     9 1   
    15     9    10 1   
    16     9    14 1   
    17     9    17 1   
    18    10    11 1   
    19    10    40 1   
    20    10    41 1   
    21    11    12 1   
    22    11    16 1   
    23    12    13 1   
    24    12    44 1   
    25    12    45 1   
    26    13    14 1   
    27    13    48 1   
    28    13    49 1   
    29    14    15 1   
    30    14    42 1   
    31    15    16 1   
    32    15    50 1   
    33    15    51 1   
    34    16    46 1   
    35    16    47 1   
    36    17    43 1   
    37    18    19 1   
    38    19    20 ar  
    39    19    24 ar  
    40    20    21 ar  
    41    20    52 1   
    42    21    22 ar  
    43    21    54 1   
    44    22    23 ar  
    45    22    25 1   
    46    23    24 ar  
    47    23    55 1   
    48    24    53 1   
    49    25    26 2   
    50    25    27 1   
    51    27    28 1   
    52    27    56 1   
    53    28    29 1   
    54    28    35 1   
    55    28    57 1   
    56    29    30 1   
    57    29    58 1   
    58    29    59 1   
    59    30    31 1   
    60    30    62 1   
    61    30    63 1   
    62    31    32 1   
    63    31    64 1   
    64    31    65 1   
    65    32    33 2   
    66    32    34 2   
    67    32    35 1   
    68    35    60 1   
    69    35    61 1   
@<TRIPOS>SUBSTRUCTURE
     1 3W4         1 TEMP              0 ****  ****    0 ROOT
