@<TRIPOS>MOLECULE
3W5
   65    69     1     0     0
SMALL
abcg2


@<TRIPOS>ATOM
      1 C1           3.0130     0.8230    -1.7490 ca         1 3W5      -0.078500
      2 C2           1.8580     1.5830    -1.7840 ca         1 3W5      -0.122500
      3 C3           1.5850     2.4590    -0.7400 ca         1 3W5       0.103100
      4 C4           2.4570     2.5840     0.3300 ca         1 3W5      -0.122500
      5 C5           3.6150     1.8250     0.3570 ca         1 3W5      -0.078500
      6 C6           3.9050     0.9310    -0.6770 ca         1 3W5       0.027000
      7 C7           5.0900     0.1420    -0.6340 cg         1 3W5      -0.112000
      8 C8           6.0920    -0.5270    -0.5860 c1         1 3W5      -0.137100
      9 C9           7.2890    -1.3710    -0.4960 c6         1 3W5       0.234100
     10 C10          7.3580    -2.0680     0.9060 c6         1 3W5       0.129800
     11 N1           8.6590    -1.9210     1.5230 n3         1 3W5      -0.676600
     12 C11          9.6980    -2.3800     0.6050 c6         1 3W5       0.145300
     13 C12          9.7880    -1.4650    -0.6350 c6         1 3W5      -0.104900
     14 C13          8.5760    -0.5290    -0.6230 c6         1 3W5      -0.049700
     15 C14          8.6910     0.3800     0.6010 c6         1 3W5      -0.104900
     16 C15          8.8770    -0.5150     1.8490 c6         1 3W5       0.145300
     17 O1           7.2900    -2.3030    -1.5560 oh         1 3W5      -0.642000
     18 O2           0.4710     3.2560    -0.7760 os         1 3W5      -0.249200
     19 C16         -0.7610     2.6990    -0.6610 ca         1 3W5       0.159100
     20 C21         -1.8390     3.5170    -0.9910 ca         1 3W5      -0.170000
     21 C20         -3.1270     3.0360    -0.8640 ca         1 3W5      -0.039000
     22 C19         -3.3670     1.7300    -0.4370 ca         1 3W5      -0.184600
     23 C18         -2.2790     0.9300    -0.1040 ca         1 3W5      -0.039000
     24 C17         -0.9800     1.4040    -0.2070 ca         1 3W5      -0.170000
     25 C22         -4.7810     1.2770    -0.3100 c          1 3W5       0.620700
     26 O3          -5.6880     2.0740    -0.1130 o          1 3W5      -0.591100
     27 N2          -4.9970    -0.0470    -0.4430 ns         1 3W5      -0.505900
     28 C23         -6.2980    -0.6530    -0.2830 c6         1 3W5       0.142700
     29 C24         -6.4150    -1.8820    -1.1790 c6         1 3W5      -0.105400
     30 C25         -7.7800    -2.5590    -1.1000 c6         1 3W5      -0.053400
     31 C26         -8.1340    -3.0540     0.2960 c6         1 3W5      -0.305400
     32 S1          -8.1490    -1.6960     1.4550 s6         1 3W5       1.084000
     33 O5          -9.1410    -0.7150     1.0090 o          1 3W5      -0.512000
     34 O4          -8.2450    -2.2020     2.8240 o          1 3W5      -0.512000
     35 C27         -6.5220    -1.0000     1.1940 c6         1 3W5      -0.324400
     36 H1           3.2290     0.1410    -2.5600 ha         1 3W5       0.125500
     37 H2           1.1750     1.4980    -2.6190 ha         1 3W5       0.132500
     38 H4           2.2350     3.2730     1.1340 ha         1 3W5       0.132500
     39 H5           4.2990     1.9200     1.1900 ha         1 3W5       0.125500
     40 H101         6.6080    -1.6510     1.5810 h1         1 3W5       0.062700
     41 H102         7.1300    -3.1310     0.7810 h1         1 3W5       0.062700
     42 H13          8.5360     0.0650    -1.5380 hc         1 3W5       0.073700
     43 HA           6.5400    -2.8970    -1.4460 ho         1 3W5       0.447000
     44 H111        10.6490    -2.4110     1.1410 h1         1 3W5       0.055700
     45 H112         9.4620    -3.4060     0.3150 h1         1 3W5       0.055700
     46 H151         8.1820    -0.2280     2.6410 h1         1 3W5       0.055700
     47 H152         9.8840    -0.4140     2.2580 h1         1 3W5       0.055700
     48 H121        10.6930    -0.8530    -0.6050 hc         1 3W5       0.052950
     49 H122         9.8360    -2.0460    -1.5560 hc         1 3W5       0.052950
     50 H141         9.5420     1.0510     0.4720 hc         1 3W5       0.052950
     51 H142         7.8060     1.0130     0.6940 hc         1 3W5       0.052950
     52 H17         -0.1580     0.7610     0.0790 ha         1 3W5       0.133500
     53 H21         -1.6620     4.5270    -1.3390 ha         1 3W5       0.133500
     54 H18         -2.4190    -0.0750     0.2760 ha         1 3W5       0.125000
     55 H20         -3.9580     3.6830    -1.1150 ha         1 3W5       0.125000
     56 HB          -4.2240    -0.6580    -0.6540 hn         1 3W5       0.314500
     57 H23         -7.0470     0.0810    -0.5840 h1         1 3W5       0.102700
     58 H241        -6.2320    -1.5780    -2.2110 hc         1 3W5       0.055700
     59 H242        -5.6330    -2.6030    -0.9180 hc         1 3W5       0.055700
     60 H271        -5.7980    -1.7380     1.5450 h1         1 3W5       0.109200
     61 H272        -6.4640    -0.1160     1.8330 h1         1 3W5       0.109200
     62 H251        -8.5580    -1.8830    -1.4600 hc         1 3W5       0.066700
     63 H252        -7.7890    -3.4210    -1.7670 hc         1 3W5       0.066700
     64 H261        -9.1290    -3.5040     0.3350 h1         1 3W5       0.103700
     65 H262        -7.4090    -3.7810     0.6690 h1         1 3W5       0.103700
@<TRIPOS>BOND
     1     1     2 ar  
     2     1     6 ar  
     3     1    36 1   
     4     2     3 ar  
     5     2    37 1   
     6     3     4 ar  
     7     3    18 1   
     8     4     5 ar  
     9     4    38 1   
    10     5     6 ar  
    11     5    39 1   
    12     6     7 1   
    13     7     8 3   
    14     8     9 1   
    15     9    10 1   
    16     9    14 1   
    17     9    17 1   
    18    10    11 1   
    19    10    40 1   
    20    10    41 1   
    21    11    12 1   
    22    11    16 1   
    23    12    13 1   
    24    12    44 1   
    25    12    45 1   
    26    13    14 1   
    27    13    48 1   
    28    13    49 1   
    29    14    15 1   
    30    14    42 1   
    31    15    16 1   
    32    15    50 1   
    33    15    51 1   
    34    16    46 1   
    35    16    47 1   
    36    17    43 1   
    37    18    19 1   
    38    19    20 ar  
    39    19    24 ar  
    40    20    21 ar  
    41    20    53 1   
    42    21    22 ar  
    43    21    55 1   
    44    22    23 ar  
    45    22    25 1   
    46    23    24 ar  
    47    23    54 1   
    48    24    52 1   
    49    25    26 2   
    50    25    27 1   
    51    27    28 1   
    52    27    56 1   
    53    28    29 1   
    54    28    35 1   
    55    28    57 1   
    56    29    30 1   
    57    29    58 1   
    58    29    59 1   
    59    30    31 1   
    60    30    62 1   
    61    30    63 1   
    62    31    32 1   
    63    31    64 1   
    64    31    65 1   
    65    32    33 2   
    66    32    34 2   
    67    32    35 1   
    68    35    60 1   
    69    35    61 1   
@<TRIPOS>SUBSTRUCTURE
     1 3W5         1 TEMP              0 ****  ****    0 ROOT
