@<TRIPOS>MOLECULE
3W5
   65    69     1     0     0
SMALL
No Charge or Current Charge


@<TRIPOS>ATOM
      1 C1           2.9380     0.7700    -1.4690 ca         1 3W5      -0.078500
      2 C2           1.7440     1.5050    -1.3500 ca         1 3W5      -0.122500
      3 C3           1.6310     2.5090    -0.3680 ca         1 3W5       0.103100
      4 C4           2.7180     2.7890     0.4760 ca         1 3W5      -0.122500
      5 C5           3.9120     2.0550     0.3570 ca         1 3W5      -0.078500
      6 C6           4.0230     1.0430    -0.6150 ca         1 3W5       0.027000
      7 C7           5.2400     0.2950    -0.7350 cg         1 3W5      -0.112000
      8 C8           6.2760    -0.3340    -0.8240 c1         1 3W5      -0.137100
      9 C9           7.5440    -1.0920    -0.9010 c6         1 3W5       0.234100
     10 C10          7.4920    -2.3930    -0.0010 c6         1 3W5       0.129800
     11 N1           8.6140    -2.4300     1.0020 n3         1 3W5      -0.676600
     12 C11          9.9260    -2.3970     0.2820 c6         1 3W5       0.145300
     13 C12         10.0670    -1.0860    -0.5580 c6         1 3W5      -0.104900
     14 C13          8.7680    -0.2310    -0.4230 c6         1 3W5      -0.049700
     15 C14          8.6170     0.0870     1.1000 c6         1 3W5      -0.104900
     16 C15          8.5080    -1.2440     1.9090 c6         1 3W5       0.145300
     17 O1           7.6930    -1.4360    -2.2840 oh         1 3W5      -0.642000
     18 O2           0.4780     3.2510    -0.2390 os         1 3W5      -0.249200
     19 C16         -0.7800     2.7080    -0.3740 ca         1 3W5       0.159100
     20 C21         -1.7850     3.4700    -0.9840 ca         1 3W5      -0.170000
     21 C20         -3.0830     2.9470    -1.1230 ca         1 3W5      -0.039000
     22 C19         -3.3960     1.6540    -0.6460 ca         1 3W5      -0.184600
     23 C18         -2.3740     0.8980    -0.0180 ca         1 3W5      -0.039000
     24 C17         -1.0780     1.4260     0.1190 ca         1 3W5      -0.170000
     25 C22         -4.8050     1.1240    -0.8150 c          1 3W5       0.620700
     26 O3          -5.6890     1.7840    -1.3430 o          1 3W5      -0.591100
     27 N2          -5.0500    -0.1480    -0.3450 ns         1 3W5      -0.505900
     28 C23         -6.3380    -0.8400    -0.3900 c6         1 3W5       0.142700
     29 C24         -6.1050    -2.3730    -0.3630 c6         1 3W5      -0.105400
     30 C25         -7.4210    -3.1840    -0.4740 c6         1 3W5      -0.053400
     31 C26         -8.3850    -2.8790     0.7010 c6         1 3W5      -0.305400
     32 S1          -8.8350    -1.1260     0.8100 s6         1 3W5       1.084000
     33 O5          -9.5170    -0.7330    -0.4300 o          1 3W5      -0.512000
     34 O4          -9.4720    -0.8790     2.1090 o          1 3W5      -0.512000
     35 C27         -7.1820    -0.3960     0.8210 c6         1 3W5      -0.324400
     36 H1           3.0200    -0.0070    -2.2270 ha         1 3W5       0.125500
     37 H2           0.9150     1.2960    -2.0210 ha         1 3W5       0.132500
     38 H4           2.6330     3.5730     1.2250 ha         1 3W5       0.132500
     39 H5           4.7480     2.2740     1.0170 ha         1 3W5       0.125500
     40 H101         6.5260    -2.4470     0.5240 h1         1 3W5       0.062700
     41 H102         7.5370    -3.2830    -0.6460 h1         1 3W5       0.062700
     42 H13          8.8520     0.6950    -1.0090 hc         1 3W5       0.073700
     43 HA           6.7840    -1.5710    -2.6250 ho         1 3W5       0.447000
     44 H111        10.7600    -2.4610     0.9980 h1         1 3W5       0.055700
     45 H112        10.0170    -3.2660    -0.3870 h1         1 3W5       0.055700
     46 H151         7.5490    -1.2620     2.4500 h1         1 3W5       0.055700
     47 H152         9.3010    -1.2720     2.6720 h1         1 3W5       0.055700
     48 H121        10.9360    -0.5130    -0.2080 hc         1 3W5       0.052950
     49 H122        10.2690    -1.3320    -1.6090 hc         1 3W5       0.052950
     50 H141         9.4840     0.6640     1.4510 hc         1 3W5       0.052950
     51 H142         7.7390     0.7190     1.2890 hc         1 3W5       0.052950
     52 H17         -0.3100     0.8380     0.6140 ha         1 3W5       0.133500
     53 H21         -1.5580     4.4660    -1.3540 ha         1 3W5       0.133500
     54 H18         -2.5650    -0.0970     0.3750 ha         1 3W5       0.125000
     55 H20         -3.8460     3.5560    -1.6060 ha         1 3W5       0.125000
     56 HB          -4.2680    -0.6320     0.0730 hn         1 3W5       0.314500
     57 H23         -6.8510    -0.5680    -1.3280 h1         1 3W5       0.102700
     58 H241        -5.4460    -2.6520    -1.1970 hc         1 3W5       0.055700
     59 H242        -5.5730    -2.6570     0.5550 hc         1 3W5       0.055700
     60 H271        -6.7180    -0.6980     1.7680 h1         1 3W5       0.109200
     61 H272        -7.3380     0.6890     0.8210 h1         1 3W5       0.109200
     62 H251        -7.9130    -2.9680    -1.4340 hc         1 3W5       0.066700
     63 H252        -7.1870    -4.2580    -0.4870 hc         1 3W5       0.066700
     64 H261        -9.3290    -3.4280     0.5960 h1         1 3W5       0.103700
     65 H262        -7.9260    -3.1330     1.6650 h1         1 3W5       0.103700
@<TRIPOS>BOND
     1     1     2 ar  
     2     1     6 ar  
     3     1    36 1   
     4     2     3 ar  
     5     2    37 1   
     6     3     4 ar  
     7     3    18 1   
     8     4     5 ar  
     9     4    38 1   
    10     5     6 ar  
    11     5    39 1   
    12     6     7 1   
    13     7     8 3   
    14     8     9 1   
    15     9    10 1   
    16     9    14 1   
    17     9    17 1   
    18    10    11 1   
    19    10    40 1   
    20    10    41 1   
    21    11    12 1   
    22    11    16 1   
    23    12    13 1   
    24    12    44 1   
    25    12    45 1   
    26    13    14 1   
    27    13    48 1   
    28    13    49 1   
    29    14    15 1   
    30    14    42 1   
    31    15    16 1   
    32    15    50 1   
    33    15    51 1   
    34    16    46 1   
    35    16    47 1   
    36    17    43 1   
    37    18    19 1   
    38    19    20 ar  
    39    19    24 ar  
    40    20    21 ar  
    41    20    53 1   
    42    21    22 ar  
    43    21    55 1   
    44    22    23 ar  
    45    22    25 1   
    46    23    24 ar  
    47    23    54 1   
    48    24    52 1   
    49    25    26 2   
    50    25    27 1   
    51    27    28 1   
    52    27    56 1   
    53    28    29 1   
    54    28    35 1   
    55    28    57 1   
    56    29    30 1   
    57    29    58 1   
    58    29    59 1   
    59    30    31 1   
    60    30    62 1   
    61    30    63 1   
    62    31    32 1   
    63    31    64 1   
    64    31    65 1   
    65    32    33 2   
    66    32    34 2   
    67    32    35 1   
    68    35    60 1   
    69    35    61 1   
@<TRIPOS>SUBSTRUCTURE
     1 3W5         1 TEMP              0 ****  ****    0 ROOT
