@<TRIPOS>MOLECULE
3W6
   27    27     1     0     0
SMALL
bcc


@<TRIPOS>ATOM
      1 CAN         -6.1450     0.8310     0.0260 c3         1 3W6      -0.090100
      2 CAM         -5.0710    -0.2480     0.0490 c3         1 3W6      -0.082400
      3 CAL         -3.6870     0.3580    -0.0330 c3         1 3W6       0.139400
      4 OAH         -2.7360    -0.7010     0.0110 os         1 3W6      -0.319900
      5 CAD         -1.4310    -0.4210    -0.0130 ca         1 3W6       0.208100
      6 CAC         -0.9040     0.8660    -0.1170 ca         1 3W6      -0.220000
      7 CAB          0.4710     1.0500    -0.1320 ca         1 3W6       0.014000
      8 CAA          1.3170    -0.0430    -0.0410 ca         1 3W6      -0.325500
      9 SAG          3.0620     0.1760    -0.0550 sy         1 3W6       1.276200
     10 OAI          3.6900    -0.9080    -0.7980 o          1 3W6      -0.619300
     11 OAJ          3.3460     1.5450    -0.4670 o          1 3W6      -0.619300
     12 NAK          3.4350    -0.1060     1.5320 n8         1 3W6      -0.891700
     13 CAF          0.7980    -1.3330     0.0600 ca         1 3W6       0.014000
     14 CAE         -0.5650    -1.5200     0.0720 ca         1 3W6      -0.220000
     15 HAQ         -7.1390     0.3880     0.0760 hc         1 3W6       0.038033
     16 HAP         -6.0430     1.5110     0.8730 hc         1 3W6       0.038033
     17 HAR         -6.0940     1.4250    -0.8870 hc         1 3W6       0.038033
     18 HAN         -5.1550    -0.8370     0.9660 hc         1 3W6       0.057200
     19 HAO         -5.2160    -0.9360    -0.7870 hc         1 3W6       0.057200
     20 HAL         -3.5750     0.9280    -0.9630 h1         1 3W6       0.038700
     21 HAM         -3.5210     1.0490     0.8010 h1         1 3W6       0.038700
     22 HAC         -1.5420     1.7350    -0.1870 ha         1 3W6       0.146000
     23 HAB          0.8660     2.0530    -0.2160 ha         1 3W6       0.154500
     24 HAS          3.1400     0.6490     2.1430 hn         1 3W6       0.415300
     25 HAK          4.4280    -0.2850     1.6530 hn         1 3W6       0.415300
     26 HAF          1.4530    -2.1910     0.1310 ha         1 3W6       0.154500
     27 HAE         -0.9770    -2.5170     0.1500 ha         1 3W6       0.146000
@<TRIPOS>BOND
     1     1     2 1   
     2     1    15 1   
     3     1    16 1   
     4     1    17 1   
     5     2     3 1   
     6     2    18 1   
     7     2    19 1   
     8     3     4 1   
     9     3    20 1   
    10     3    21 1   
    11     4     5 1   
    12     5     6 ar  
    13     5    14 ar  
    14     6     7 ar  
    15     6    22 1   
    16     7     8 ar  
    17     7    23 1   
    18     8     9 1   
    19     8    13 ar  
    20     9    10 2   
    21     9    11 2   
    22     9    12 1   
    23    12    24 1   
    24    12    25 1   
    25    13    14 ar  
    26    13    26 1   
    27    14    27 1   
@<TRIPOS>SUBSTRUCTURE
     1 3W6         1 TEMP              0 ****  ****    0 ROOT
