@<TRIPOS>MOLECULE
3W6
   27    27     1     0     0
SMALL
No Charge or Current Charge


@<TRIPOS>ATOM
      1 CAN         -6.2190     0.8800     0.0340 c3         1 3W6      -0.090100
      2 CAM         -5.1050    -0.1870     0.0480 c3         1 3W6      -0.082400
      3 CAL         -3.6900     0.4200     0.0090 c3         1 3W6       0.162600
      4 OAH         -2.7500    -0.6680     0.0260 os         1 3W6      -0.343100
      5 CAD         -1.3870    -0.4610    -0.0010 ca         1 3W6       0.208100
      6 CAC         -0.8130     0.8270    -0.0460 ca         1 3W6      -0.202000
      7 CAB          0.5850     0.9770    -0.0720 ca         1 3W6       0.032000
      8 CAA          1.4150    -0.1620    -0.0530 ca         1 3W6      -0.325500
      9 SAG          3.1950     0.0190    -0.0870 sy         1 3W6       1.134600
     10 OAI          3.8240    -1.1800    -0.6410 o          1 3W6      -0.548500
     11 OAJ          3.5540     1.3720    -0.5040 o          1 3W6      -0.548500
     12 NAK          3.5530    -0.0070     1.5070 n8         1 3W6      -1.002100
     13 CAF          0.8430    -1.4480    -0.0090 ca         1 3W6       0.032000
     14 CAE         -0.5540    -1.5900     0.0170 ca         1 3W6      -0.202000
     15 HAQ         -7.2060     0.4030     0.0630 hc         1 3W6       0.038033
     16 HAP         -6.1320     1.5420     0.9040 hc         1 3W6       0.038033
     17 HAR         -6.1600     1.4910    -0.8740 hc         1 3W6       0.038033
     18 HAN         -5.2090    -0.8020     0.9500 hc         1 3W6       0.057200
     19 HAO         -5.2360    -0.8520    -0.8140 hc         1 3W6       0.057200
     20 HAL         -3.5730     1.0200    -0.9030 h1         1 3W6       0.038700
     21 HAM         -3.5460     1.0700     0.8820 h1         1 3W6       0.038700
     22 HAC         -1.4300     1.7200    -0.0620 ha         1 3W6       0.128000
     23 HAB          1.0120     1.9780    -0.1090 ha         1 3W6       0.136500
     24 HAS          2.6590     0.2290     1.9290 hn         1 3W6       0.470500
     25 HAK          4.0980     0.8480     1.5940 hn         1 3W6       0.470500
     26 HAF          1.4730    -2.3370     0.0070 ha         1 3W6       0.136500
     27 HAE         -0.9960    -2.5820     0.0520 ha         1 3W6       0.128000
@<TRIPOS>BOND
     1     1     2 1   
     2     1    15 1   
     3     1    16 1   
     4     1    17 1   
     5     2     3 1   
     6     2    18 1   
     7     2    19 1   
     8     3     4 1   
     9     3    20 1   
    10     3    21 1   
    11     4     5 1   
    12     5     6 ar  
    13     5    14 ar  
    14     6     7 ar  
    15     6    22 1   
    16     7     8 ar  
    17     7    23 1   
    18     8     9 1   
    19     8    13 ar  
    20     9    10 2   
    21     9    11 2   
    22     9    12 1   
    23    12    24 1   
    24    12    25 1   
    25    13    14 ar  
    26    13    26 1   
    27    14    27 1   
@<TRIPOS>SUBSTRUCTURE
     1 3W6         1 TEMP              0 ****  ****    0 ROOT
