@<TRIPOS>MOLECULE
3W7
   54    58     1     0     0
SMALL
No Charge or Current Charge


@<TRIPOS>ATOM
      1 C1          -4.5570     0.7680    -1.4630 ca         1 3W7      -0.068000
      2 C2          -5.4800    -0.2720    -1.7070 ca         1 3W7      -0.086000
      3 C3          -3.8060    -0.3470     0.5780 ca         1 3W7      -0.020000
      4 C4          -5.0540    -2.5430     1.0100 cc         1 3W7      -0.189100
      5 C5           4.4460     0.6160    -1.9660 cc         1 3W7       0.228900
      6 C6          -4.7340    -1.3570     0.2970 ca         1 3W7      -0.159000
      7 C7          -3.6970     0.7340    -0.3330 ca         1 3W7      -0.159600
      8 C8           3.5910     0.9710    -0.9160 cc         1 3W7      -0.145300
      9 C9          -5.5510    -1.3420    -0.8040 ca         1 3W7      -0.059000
     10 C10          3.8240     0.1010     0.0960 cd         1 3W7      -0.261600
     11 C11          3.0650     0.1340     1.3660 c          1 3W7       0.617700
     12 C12         -2.7390     1.8800    -0.0900 c          1 3W7       0.615700
     13 C13          2.5640     2.0730    -0.9150 c6         1 3W7       0.003900
     14 C14          2.0740     1.3100     1.4790 c6         1 3W7      -0.169400
     15 C15          0.5420     3.0190     0.3080 c6         1 3W7      -0.095900
     16 C16          0.5060     0.6180    -0.4530 c6         1 3W7      -0.095900
     17 C17         -0.7190     2.7430     1.1640 c6         1 3W7       0.094000
     18 C18         -0.7550     0.3750     0.4140 c6         1 3W7       0.094000
     19 C19          1.4250     1.7480     0.1130 c6         1 3W7      -0.031000
     20 C20          4.6530    -3.2220     0.0090 c3         1 3W7      -0.102100
     21 C21          6.9380    -2.0710     0.0700 c3         1 3W7      -0.102100
     22 N23         -6.0550    -3.1710     0.2720 na         1 3W7       0.017500
     23 N24          5.2050    -0.4260    -1.6900 nd         1 3W7      -0.505800
     24 N25         -6.4000    -2.4480    -0.8790 nc         1 3W7      -0.282400
     25 N26          4.8210    -0.7570    -0.3860 na         1 3W7       0.178800
     26 N27         -1.5360     1.6280     0.6120 n          1 3W7      -0.403800
     27 O28          3.1780    -0.7050     2.2500 o          1 3W7      -0.534100
     28 O29         -3.0470     3.0200    -0.4190 o          1 3W7      -0.597100
     29 H1          -4.5040     1.6010    -2.1620 ha         1 3W7       0.126000
     30 H2          -6.1280    -0.2420    -2.5800 ha         1 3W7       0.130000
     31 H3          -3.2020    -0.3930     1.4820 ha         1 3W7       0.121000
     32 H4          -4.6760    -2.9750     1.9310 h4         1 3W7       0.229000
     33 H5           4.5270     1.0850    -2.9380 h4         1 3W7       0.041100
     34 H6           3.0500     3.0210    -0.6450 hc         1 3W7       0.056200
     35 H7           2.1460     2.2230    -1.9200 hc         1 3W7       0.056200
     36 H8           1.3540     1.0990     2.2780 hc         1 3W7       0.072200
     37 H9           2.6840     2.1590     1.8150 hc         1 3W7       0.072200
     38 H10          0.2220     3.4000    -0.6720 hc         1 3W7       0.054950
     39 H11          1.1280     3.8250     0.7710 hc         1 3W7       0.054950
     40 H12          1.0610    -0.3240    -0.5580 hc         1 3W7       0.054950
     41 H13          0.1790     0.8850    -1.4670 hc         1 3W7       0.054950
     42 H14         -0.4250     2.4920     2.1920 h1         1 3W7       0.059200
     43 H15         -1.3190     3.6620     1.2330 h1         1 3W7       0.059200
     44 H16         -1.3590    -0.3920    -0.0870 h1         1 3W7       0.059200
     45 H17         -0.4680    -0.0310     1.3950 h1         1 3W7       0.059200
     46 H18          5.0580    -4.0580     0.5920 hc         1 3W7       0.050367
     47 H19          3.5910    -3.1150     0.2600 hc         1 3W7       0.050367
     48 H20          4.7310    -3.4740    -1.0560 hc         1 3W7       0.050367
     49 H21          7.1440    -2.3180    -0.9780 hc         1 3W7       0.050367
     50 H22          7.4640    -1.1410     0.3160 hc         1 3W7       0.050367
     51 H23          7.3530    -2.8700     0.6960 hc         1 3W7       0.050367
     52 H24          5.3060    -1.7250     1.3950 h1         1 3W7       0.084700
     53 H25         -6.5170    -4.0490     0.4960 hn         1 3W7       0.372000
     54 C22          5.4180    -1.9180     0.3210 c3         1 3W7       0.098300
@<TRIPOS>BOND
     1     1     2 ar  
     2     1     7 ar  
     3     1    29 1   
     4     2     9 ar  
     5     2    30 1   
     6     3     6 ar  
     7     3     7 ar  
     8     3    31 1   
     9     4     6 2   
    10     4    22 1   
    11     4    32 1   
    12     5     8 1   
    13     5    23 2   
    14     5    33 1   
    15     6     9 ar  
    16     7    12 1   
    17     8    10 2   
    18     8    13 1   
    19     9    24 2   
    20    10    11 1   
    21    10    25 1   
    22    11    14 1   
    23    11    27 2   
    24    12    26 1   
    25    12    28 2   
    26    13    19 1   
    27    13    34 1   
    28    13    35 1   
    29    14    19 1   
    30    14    36 1   
    31    14    37 1   
    32    15    17 1   
    33    15    19 1   
    34    15    38 1   
    35    15    39 1   
    36    16    18 1   
    37    16    19 1   
    38    16    40 1   
    39    16    41 1   
    40    17    26 1   
    41    17    42 1   
    42    17    43 1   
    43    18    26 1   
    44    18    44 1   
    45    18    45 1   
    46    20    46 1   
    47    20    47 1   
    48    20    48 1   
    49    20    54 1   
    50    21    49 1   
    51    21    50 1   
    52    21    51 1   
    53    21    54 1   
    54    22    24 1   
    55    22    53 1   
    56    23    25 1   
    57    25    54 1   
    58    52    54 1   
@<TRIPOS>SUBSTRUCTURE
     1 3W7         1 TEMP              0 ****  ****    0 ROOT
