@<TRIPOS>MOLECULE
3W7
   54    58     1     0     0
SMALL
bcc


@<TRIPOS>ATOM
      1 C1          -4.1670     0.6680    -1.4590 ca         1 3W7      -0.086000
      2 C2          -5.0450    -0.3000    -1.8470 ca         1 3W7      -0.104000
      3 C3          -3.8570    -0.3080     0.7490 ca         1 3W7      -0.038000
      4 C4          -5.3310    -2.4210     1.0080 cc         1 3W7      -0.139100
      5 C5           4.2650     0.4290    -2.0950 cc         1 3W7       0.294200
      6 C6          -4.7800    -1.3070     0.3810 ca         1 3W7      -0.159000
      7 C7          -3.5530     0.6620    -0.1700 ca         1 3W7      -0.159600
      8 C8           3.4330     0.8870    -1.0720 cc         1 3W7      -0.210600
      9 C9          -5.3690    -1.3140    -0.9150 ca         1 3W7      -0.059000
     10 C10          3.7490     0.0790     0.0060 cd         1 3W7      -0.210900
     11 C11          3.0790     0.1800     1.2970 c          1 3W7       0.617700
     12 C12         -2.6910     1.8290     0.1910 c          1 3W7       0.682700
     13 C13          2.4090     1.9650    -1.0180 c6         1 3W7       0.003900
     14 C14          2.1330     1.3560     1.3870 c6         1 3W7      -0.169400
     15 C15          0.5160     2.9400     0.2900 c6         1 3W7      -0.095900
     16 C16          0.4530     0.5340    -0.3250 c6         1 3W7      -0.095900
     17 C17         -0.6680     2.6970     1.2160 c6         1 3W7       0.094000
     18 C18         -0.7380     0.3460     0.6100 c6         1 3W7       0.094000
     19 C19          1.3780     1.6890     0.0860 c6         1 3W7      -0.031000
     20 C20          4.7550    -3.2080    -0.1190 c3         1 3W7      -0.102100
     21 C21          6.8650    -1.8400     0.1250 c3         1 3W7      -0.102100
     22 N23         -6.1430    -2.9700     0.1050 na         1 3W7       0.067800
     23 N24          5.0250    -0.5720    -1.6720 nd         1 3W7      -0.505800
     24 N25         -6.2020    -2.3450    -1.0630 nc         1 3W7      -0.282400
     25 N26          4.7170    -0.7790    -0.4100 na         1 3W7       0.157400
     26 N27         -1.4840     1.5880     0.7480 n          1 3W7      -0.470800
     27 O28          3.2640    -0.5750     2.2320 o          1 3W7      -0.534100
     28 O29         -3.1250     2.9610     0.0080 o          1 3W7      -0.597100
     29 H1          -3.9140     1.4610    -2.1510 ha         1 3W7       0.144000
     30 H2          -5.4870    -0.2910    -2.8350 ha         1 3W7       0.148000
     31 H3          -3.4120    -0.3060     1.7370 ha         1 3W7       0.139000
     32 H4          -5.2010    -2.8390     1.9930 h4         1 3W7       0.179000
     33 H5           4.3420     0.7820    -3.1130 h4         1 3W7       0.041100
     34 H6           2.8960     2.9270    -0.8180 hc         1 3W7       0.056200
     35 H7           1.9090     2.0710    -1.9840 hc         1 3W7       0.056200
     36 H8           1.4560     1.1810     2.2230 hc         1 3W7       0.072200
     37 H9           2.7420     2.2250     1.6700 hc         1 3W7       0.072200
     38 H10          0.1400     3.2750    -0.6820 hc         1 3W7       0.054950
     39 H11          1.1230     3.7540     0.6940 hc         1 3W7       0.054950
     40 H12          0.9980    -0.4120    -0.3850 hc         1 3W7       0.054950
     41 H13          0.0700     0.7300    -1.3310 hc         1 3W7       0.054950
     42 H14         -0.3240     2.4630     2.2280 h1         1 3W7       0.059200
     43 H15         -1.2800     3.5920     1.2890 h1         1 3W7       0.059200
     44 H16         -1.3770    -0.4350     0.2100 h1         1 3W7       0.059200
     45 H17         -0.4150     0.0120     1.6000 h1         1 3W7       0.059200
     46 H18          5.2070    -4.0210     0.4480 hc         1 3W7       0.050367
     47 H19          3.6790    -3.2330     0.0570 hc         1 3W7       0.050367
     48 H20          4.9370    -3.3900    -1.1790 hc         1 3W7       0.050367
     49 H21          7.1480    -2.0410    -0.9080 hc         1 3W7       0.050367
     50 H22          7.2800    -0.8750     0.4170 hc         1 3W7       0.050367
     51 H23          7.3200    -2.6060     0.7530 hc         1 3W7       0.050367
     52 H24          5.1330    -1.7120     1.3650 h1         1 3W7       0.084700
     53 H25         -6.6970    -3.8030     0.2420 hn         1 3W7       0.321700
     54 C22          5.3570    -1.8780     0.3150 c3         1 3W7       0.069000
@<TRIPOS>BOND
     1     1     2 ar  
     2     1     7 ar  
     3     1    29 1   
     4     2     9 ar  
     5     2    30 1   
     6     3     6 ar  
     7     3     7 ar  
     8     3    31 1   
     9     4     6 2   
    10     4    22 1   
    11     4    32 1   
    12     5     8 1   
    13     5    23 2   
    14     5    33 1   
    15     6     9 ar  
    16     7    12 1   
    17     8    10 2   
    18     8    13 1   
    19     9    24 2   
    20    10    11 1   
    21    10    25 1   
    22    11    14 1   
    23    11    27 2   
    24    12    26 1   
    25    12    28 2   
    26    13    19 1   
    27    13    34 1   
    28    13    35 1   
    29    14    19 1   
    30    14    36 1   
    31    14    37 1   
    32    15    17 1   
    33    15    19 1   
    34    15    38 1   
    35    15    39 1   
    36    16    18 1   
    37    16    19 1   
    38    16    40 1   
    39    16    41 1   
    40    17    26 1   
    41    17    42 1   
    42    17    43 1   
    43    18    26 1   
    44    18    44 1   
    45    18    45 1   
    46    20    46 1   
    47    20    47 1   
    48    20    48 1   
    49    20    54 1   
    50    21    49 1   
    51    21    50 1   
    52    21    51 1   
    53    21    54 1   
    54    22    24 1   
    55    22    53 1   
    56    23    25 1   
    57    25    54 1   
    58    52    54 1   
@<TRIPOS>SUBSTRUCTURE
     1 3W7         1 TEMP              0 ****  ****    0 ROOT
