@<TRIPOS>MOLECULE
3W8
   24    24     1     0     0
SMALL
bcc


@<TRIPOS>ATOM
      1 CAM          5.5120     0.1330    -0.0420 c3         1 3W8      -0.096100
      2 CAL          4.1000     0.6620     0.0260 c3         1 3W8       0.140400
      3 OAH          3.2100    -0.4500    -0.0390 os         1 3W8      -0.319900
      4 CAD          1.8920    -0.2410    -0.0070 ca         1 3W8       0.207100
      5 CAC          1.2960     1.0180     0.0770 ca         1 3W8      -0.221000
      6 CAB         -0.0860     1.1260     0.1040 ca         1 3W8       0.014000
      7 CAA         -0.8720    -0.0120     0.0460 ca         1 3W8      -0.325500
      8 SAG         -2.6260     0.1140     0.0870 sy         1 3W8       1.274200
      9 OAI         -3.1820    -0.9800     0.8730 o          1 3W8      -0.618800
     10 OAJ         -2.9750     1.4770     0.4680 o          1 3W8      -0.618800
     11 NAK         -3.0120    -0.2340    -1.4840 n8         1 3W8      -0.890700
     12 CAF         -0.2850    -1.2740    -0.0370 ca         1 3W8       0.014000
     13 CAE          1.0860    -1.3860    -0.0630 ca         1 3W8      -0.221000
     14 HAN          5.7250    -0.5420     0.7860 hc         1 3W8       0.050700
     15 HAO          5.6970    -0.3920    -0.9780 hc         1 3W8       0.050700
     16 HAP          6.2090     0.9680     0.0180 hc         1 3W8       0.050700
     17 HAL          3.9390     1.2150     0.9570 h1         1 3W8       0.038700
     18 HAM          3.9060     1.3470    -0.8060 h1         1 3W8       0.038700
     19 HAC          1.8880     1.9210     0.1220 ha         1 3W8       0.146000
     20 HAB         -0.5340     2.1080     0.1730 ha         1 3W8       0.154500
     21 HAQ         -3.9970    -0.4630    -1.5810 hn         1 3W8       0.414800
     22 HAK         -2.7640     0.5160    -2.1220 hn         1 3W8       0.414800
     23 HAF         -0.8930    -2.1680    -0.0820 ha         1 3W8       0.154500
     24 HAE          1.5510    -2.3620    -0.1240 ha         1 3W8       0.146000
@<TRIPOS>BOND
     1     1     2 1   
     2     1    14 1   
     3     1    15 1   
     4     1    16 1   
     5     2     3 1   
     6     2    17 1   
     7     2    18 1   
     8     3     4 1   
     9     4     5 ar  
    10     4    13 ar  
    11     5     6 ar  
    12     5    19 1   
    13     6     7 ar  
    14     6    20 1   
    15     7     8 1   
    16     7    12 ar  
    17     8     9 2   
    18     8    10 2   
    19     8    11 1   
    20    11    21 1   
    21    11    22 1   
    22    12    13 ar  
    23    12    23 1   
    24    13    24 1   
@<TRIPOS>SUBSTRUCTURE
     1 3W8         1 TEMP              0 ****  ****    0 ROOT
