@<TRIPOS>MOLECULE
3W8
   24    24     1     0     0
SMALL
No Charge or Current Charge


@<TRIPOS>ATOM
      1 CAM          5.5520     0.2130    -0.0670 c3         1 3W8      -0.096100
      2 CAL          4.1070     0.7370    -0.0280 c3         1 3W8       0.163600
      3 OAH          3.2330    -0.4030    -0.0250 os         1 3W8      -0.343100
      4 CAD          1.8590    -0.2760     0.0070 ca         1 3W8       0.207100
      5 CAC          1.2120     0.9770     0.0390 ca         1 3W8      -0.203000
      6 CAB         -0.1920     1.0450     0.0710 ca         1 3W8       0.032000
      7 CAA         -0.9550    -0.1400     0.0710 ca         1 3W8      -0.325500
      8 SAG         -2.7420    -0.0630     0.1140 sy         1 3W8       1.132600
      9 OAI         -3.2970    -1.2890     0.6860 o          1 3W8      -0.548000
     10 OAJ         -3.1770     1.2730     0.5160 o          1 3W8      -0.548000
     11 NAK         -3.1060    -0.1300    -1.4780 n8         1 3W8      -1.001100
     12 CAF         -0.3090    -1.3910     0.0410 ca         1 3W8       0.032000
     13 CAE          1.0940    -1.4510     0.0080 ca         1 3W8      -0.203000
     14 HAN          5.7610    -0.4100     0.8100 hc         1 3W8       0.050700
     15 HAO          5.7210    -0.3840    -0.9710 hc         1 3W8       0.050700
     16 HAP          6.2590     1.0510    -0.0710 hc         1 3W8       0.050700
     17 HAL          3.9630     1.3420     0.8770 h1         1 3W8       0.038700
     18 HAM          3.9240     1.3670    -0.9080 h1         1 3W8       0.038700
     19 HAC          1.7760     1.9040     0.0400 ha         1 3W8       0.128000
     20 HAB         -0.6770     2.0210     0.0980 ha         1 3W8       0.136500
     21 HAQ         -3.7000     0.6900    -1.5730 hn         1 3W8       0.470000
     22 HAK         -2.2290     0.1520    -1.9080 hn         1 3W8       0.470000
     23 HAF         -0.8860    -2.3160     0.0390 ha         1 3W8       0.136500
     24 HAE          1.5930    -2.4160    -0.0160 ha         1 3W8       0.128000
@<TRIPOS>BOND
     1     1     2 1   
     2     1    14 1   
     3     1    15 1   
     4     1    16 1   
     5     2     3 1   
     6     2    17 1   
     7     2    18 1   
     8     3     4 1   
     9     4     5 ar  
    10     4    13 ar  
    11     5     6 ar  
    12     5    19 1   
    13     6     7 ar  
    14     6    20 1   
    15     7     8 1   
    16     7    12 ar  
    17     8     9 2   
    18     8    10 2   
    19     8    11 1   
    20    11    21 1   
    21    11    22 1   
    22    12    13 ar  
    23    12    23 1   
    24    13    24 1   
@<TRIPOS>SUBSTRUCTURE
     1 3W8         1 TEMP              0 ****  ****    0 ROOT
