@<TRIPOS>MOLECULE
3W9
   28    28     1     0     0
SMALL
No Charge or Current Charge


@<TRIPOS>ATOM
      1 C13          3.9400     0.3740     0.0950 c          1 3W9       0.594500
      2 O01          4.6990    -0.5890     0.1320 o          1 3W9      -0.541100
      3 C12          2.4420     0.2430     0.0680 ca         1 3W9      -0.272600
      4 C10          1.6420     1.3990     0.0260 ca         1 3W9      -0.004500
      5 C08          0.2430     1.2880     0.0010 ca         1 3W9      -0.223500
      6 C05         -0.3870     0.0280     0.0160 ca         1 3W9       0.386000
      7 C09          0.4240    -1.1230     0.0580 ca         1 3W9      -0.223500
      8 C11          1.8240    -1.0220     0.0840 ca         1 3W9      -0.004500
      9 N02         -1.8040    -0.0790    -0.0100 nh         1 3W9      -0.824400
     10 C04         -2.6690     0.9580     0.6040 c3         1 3W9       0.225300
     11 C07         -3.2990     1.9260    -0.4160 c3         1 3W9      -0.116100
     12 C03         -2.4810    -1.2320    -0.6510 c3         1 3W9       0.225300
     13 C06         -2.9940    -2.2870     0.3480 c3         1 3W9      -0.116100
     14 H1           4.3390     1.4120     0.0800 h4         1 3W9      -0.022800
     15 H2           2.1020     2.3860     0.0100 ha         1 3W9       0.116500
     16 H3          -0.3480     2.1960    -0.0430 ha         1 3W9       0.114500
     17 H4          -0.0250    -2.1100     0.0830 ha         1 3W9       0.114500
     18 H5           2.4250    -1.9300     0.1200 ha         1 3W9       0.116500
     19 H6          -3.4780     0.4780     1.1710 h1         1 3W9       0.049200
     20 H7          -2.0950     1.5410     1.3370 h1         1 3W9       0.049200
     21 H8          -3.8920     2.6870     0.1040 hc         1 3W9       0.043200
     22 H9          -2.5260     2.4350    -1.0030 hc         1 3W9       0.043200
     23 H10         -3.9600     1.3910    -1.1060 hc         1 3W9       0.043200
     24 H11         -3.3320    -0.8780    -1.2490 h1         1 3W9       0.049200
     25 H12         -1.8000    -1.7210    -1.3620 h1         1 3W9       0.049200
     26 H13         -3.7530    -1.8590     1.0120 hc         1 3W9       0.043200
     27 H14         -3.4480    -3.1270    -0.1910 hc         1 3W9       0.043200
     28 H15         -2.1750    -2.6750     0.9630 hc         1 3W9       0.043200
@<TRIPOS>BOND
     1     1     2 2   
     2     1     3 1   
     3     1    14 1   
     4     3     4 ar  
     5     3     8 ar  
     6     4     5 ar  
     7     4    15 1   
     8     5     6 ar  
     9     5    16 1   
    10     6     7 ar  
    11     6     9 1   
    12     7     8 ar  
    13     7    17 1   
    14     8    18 1   
    15     9    10 1   
    16     9    12 1   
    17    10    11 1   
    18    10    19 1   
    19    10    20 1   
    20    11    21 1   
    21    11    22 1   
    22    11    23 1   
    23    12    13 1   
    24    12    24 1   
    25    12    25 1   
    26    13    26 1   
    27    13    27 1   
    28    13    28 1   
@<TRIPOS>SUBSTRUCTURE
     1 3W9         1 TEMP              0 ****  ****    0 ROOT
