@<TRIPOS>MOLECULE
3W9
   28    28     1     0     0
SMALL
bcc


@<TRIPOS>ATOM
      1 C13          3.7630     0.3630     0.0940 c          1 3W9       0.594500
      2 O01          4.5640    -0.5080    -0.1850 o          1 3W9      -0.541100
      3 C12          2.3200     0.2260     0.0590 ca         1 3W9      -0.272600
      4 C10          1.5080     1.3120     0.3930 ca         1 3W9      -0.022500
      5 C08          0.1350     1.2250     0.3710 ca         1 3W9      -0.241500
      6 C05         -0.5130     0.0180     0.0140 ca         1 3W9       0.247600
      7 C09          0.3210    -1.0810    -0.3240 ca         1 3W9      -0.241500
      8 C11          1.6890    -0.9710    -0.3020 ca         1 3W9      -0.022500
      9 N02         -1.8620    -0.0860    -0.0040 nh         1 3W9      -0.686000
     10 C04         -2.7210     1.0160     0.3940 c3         1 3W9       0.225300
     11 C07         -3.0190     1.9810    -0.7450 c3         1 3W9      -0.116100
     12 C03         -2.5390    -1.2980    -0.4350 c3         1 3W9       0.225300
     13 C06         -2.7330    -2.3060     0.6880 c3         1 3W9      -0.116100
     14 H1           4.1140     1.3640     0.4090 h4         1 3W9      -0.022800
     15 H2           1.9650     2.2540     0.6750 ha         1 3W9       0.134500
     16 H3          -0.4360     2.1050     0.6260 ha         1 3W9       0.132500
     17 H4          -0.1070    -2.0340    -0.5990 ha         1 3W9       0.132500
     18 H5           2.2860    -1.8360    -0.5660 ha         1 3W9       0.134500
     19 H6          -3.6540     0.5880     0.7650 h1         1 3W9       0.049200
     20 H7          -2.2870     1.5440     1.2440 h1         1 3W9       0.049200
     21 H8          -3.6780     2.7790    -0.4020 hc         1 3W9       0.043200
     22 H9          -2.1090     2.4400    -1.1330 hc         1 3W9       0.043200
     23 H10         -3.5160     1.4680    -1.5690 hc         1 3W9       0.043200
     24 H11         -3.5090    -1.0040    -0.8400 h1         1 3W9       0.049200
     25 H12         -2.0040    -1.7500    -1.2710 h1         1 3W9       0.049200
     26 H13         -3.3170    -1.8770     1.5030 hc         1 3W9       0.043200
     27 H14         -3.2670    -3.1830     0.3220 hc         1 3W9       0.043200
     28 H15         -1.7790    -2.6400     1.0980 hc         1 3W9       0.043200
@<TRIPOS>BOND
     1     1     2 2   
     2     1     3 1   
     3     1    14 1   
     4     3     4 ar  
     5     3     8 ar  
     6     4     5 ar  
     7     4    15 1   
     8     5     6 ar  
     9     5    16 1   
    10     6     7 ar  
    11     6     9 1   
    12     7     8 ar  
    13     7    17 1   
    14     8    18 1   
    15     9    10 1   
    16     9    12 1   
    17    10    11 1   
    18    10    19 1   
    19    10    20 1   
    20    11    21 1   
    21    11    22 1   
    22    11    23 1   
    23    12    13 1   
    24    12    24 1   
    25    12    25 1   
    26    13    26 1   
    27    13    27 1   
    28    13    28 1   
@<TRIPOS>SUBSTRUCTURE
     1 3W9         1 TEMP              0 ****  ****    0 ROOT
