@<TRIPOS>MOLECULE
3WA
   18    19     1     0     0
SMALL
No Charge or Current Charge


@<TRIPOS>ATOM
      1 C1          -0.0230     0.2590     0.0340 ca         1 3WA      -0.386600
      2 C2           0.0930    -1.1360     0.0010 ca         1 3WA       0.392900
      3 C3           1.1990     1.0750     0.0280 c          1 3WA       0.616900
      4 N6          -1.0210    -1.8900    -0.0100 nb         1 3WA      -0.291000
      5 C7           2.4240     0.3090     0.0540 cc         1 3WA      -0.366200
      6 C11          2.5210    -1.0610     0.0370 cd         1 3WA       0.060000
      7 C12         -2.2130    -1.2680     0.0130 ca         1 3WA       0.221900
      8 C4          -1.3110     0.8060     0.0660 ca         1 3WA       0.445900
      9 N5           1.3210    -1.7940    -0.0320 na         1 3WA      -0.753900
     10 O8           1.2050     2.3000    -0.0000 o          1 3WA      -0.607100
     11 N9          -2.4140     0.0570     0.0510 nb         1 3WA      -0.306000
     12 N10         -1.5500     2.1320     0.1240 nv         1 3WA      -1.050900
     13 H1           3.3200     0.9170     0.0780 ha         1 3WA       0.212000
     14 H2           3.4670    -1.6070     0.0510 h4         1 3WA       0.203000
     15 H3          -3.0990    -1.9000     0.0020 h5         1 3WA       0.047100
     16 H4           1.3280    -2.8130    -0.0790 hn         1 3WA       0.521000
     17 H5          -0.7430     2.7390    -0.0260 hn         1 3WA       0.521500
     18 H6          -2.4550     2.4800    -0.1820 hn         1 3WA       0.521500
@<TRIPOS>BOND
     1     1     2 ar  
     2     1     3 1   
     3     1     8 ar  
     4     2     4 ar  
     5     2     9 1   
     6     3     5 1   
     7     3    10 2   
     8     4     7 ar  
     9     5     6 2   
    10     5    13 1   
    11     6     9 1   
    12     6    14 1   
    13     7    11 ar  
    14     7    15 1   
    15     8    11 ar  
    16     8    12 1   
    17     9    16 1   
    18    12    17 1   
    19    12    18 1   
@<TRIPOS>SUBSTRUCTURE
     1 3WA         1 TEMP              0 ****  ****    0 ROOT
