@<TRIPOS>MOLECULE
3WA
   18    19     1     0     0
SMALL
bcc


@<TRIPOS>ATOM
      1 C1           0.0080     0.2700     0.0290 ca         1 3WA      -0.517200
      2 C2           0.0670    -1.1260     0.0210 ca         1 3WA       0.721200
      3 C3           1.2180     1.0810     0.0360 c          1 3WA       0.616900
      4 N6          -1.0040    -1.9220     0.0090 nb         1 3WA      -0.817000
      5 C7           2.4470     0.3230     0.0210 cc         1 3WA      -0.316200
      6 C11          2.4340    -1.0270     0.0180 cd         1 3WA       0.110000
      7 C12         -2.1630    -1.2920    -0.0170 ca         1 3WA       0.747900
      8 C4          -1.3120     0.8090     0.0120 ca         1 3WA       0.774200
      9 N5           1.2800    -1.7330     0.0180 na         1 3WA      -0.698700
     10 O8           1.2020     2.3170     0.0530 o          1 3WA      -0.607100
     11 N9          -2.3820     0.0090    -0.0260 nb         1 3WA      -0.832000
     12 N10         -1.5270     2.1200     0.0400 nv         1 3WA      -0.940500
     13 H1           3.3920     0.8460     0.0100 ha         1 3WA       0.162000
     14 H2           3.3380    -1.6170     0.0150 h4         1 3WA       0.153000
     15 H3          -3.0460    -1.9220    -0.0370 h5         1 3WA       0.047100
     16 H4           1.3060    -2.7400     0.0380 hn         1 3WA       0.465800
     17 H5          -0.7400     2.7500     0.0150 hn         1 3WA       0.466300
     18 H6          -2.4690     2.4590    -0.0460 hn         1 3WA       0.466300
@<TRIPOS>BOND
     1     1     2 ar  
     2     1     3 1   
     3     1     8 ar  
     4     2     4 ar  
     5     2     9 1   
     6     3     5 1   
     7     3    10 2   
     8     4     7 ar  
     9     5     6 2   
    10     5    13 1   
    11     6     9 1   
    12     6    14 1   
    13     7    11 ar  
    14     7    15 1   
    15     8    11 ar  
    16     8    12 1   
    17     9    16 1   
    18    12    17 1   
    19    12    18 1   
@<TRIPOS>SUBSTRUCTURE
     1 3WA         1 TEMP              0 ****  ****    0 ROOT
