@<TRIPOS>MOLECULE
3WC
   34    36     1     0     0
SMALL
No Charge or Current Charge


@<TRIPOS>ATOM
      1 C4          -0.1750    -1.4400    -0.3460 ca         1 3WC      -0.211000
      2 C5          -1.5740    -1.5570    -0.3260 ca         1 3WC       0.004700
      3 C6          -2.2210    -2.9000    -0.6500 c3         1 3WC      -0.056800
      4 C8           2.4350     1.2300    -0.6260 c6         1 3WC       0.181300
      5 C10          3.8680     1.5260    -0.0720 c6         1 3WC       0.136800
      6 N12          4.7820     0.3520    -0.1660 n7         1 3WC      -0.841400
      7 C13          4.1830    -0.8280     0.5220 c6         1 3WC       0.136800
      8 C15          2.7580    -1.1890    -0.0160 c6         1 3WC       0.181300
      9 C11          0.4260    -0.2050    -0.0510 ca         1 3WC       0.642900
     10 C20         -3.7390    -0.4320     0.0390 ca         1 3WC      -0.075000
     11 C22         -1.6350     0.8050     0.2800 ca         1 3WC       0.329000
     12 N10          1.8250    -0.0150    -0.0430 nh         1 3WC      -0.782300
     13 C24         -2.3820     1.9550     0.6000 ca         1 3WC      -0.105000
     14 C26         -3.7850     1.9220     0.6420 ca         1 3WC      -0.090000
     15 N11         -0.2880     0.8900     0.2540 nb         1 3WC      -0.772000
     16 C2          -2.3250    -0.4040    -0.0040 ca         1 3WC      -0.125000
     17 C28         -4.4620     0.7270     0.3610 ca         1 3WC      -0.132000
     18 H4           0.4320    -2.3010    -0.6000 ha         1 3WC       0.118000
     19 H61C        -2.8190    -3.2640     0.1940 hc         1 3WC       0.048033
     20 H62C        -2.8780    -2.8210    -1.5240 hc         1 3WC       0.048033
     21 H63C        -1.4730    -3.6700    -0.8740 hc         1 3WC       0.048033
     22 H82C         2.4950     1.1290    -1.7200 h1         1 3WC       0.051450
     23 H101         4.2980     2.3780    -0.6200 h1         1 3WC       0.061950
     24 H102         3.7790     1.8320     0.9810 h1         1 3WC       0.061950
     25 H12          4.8970     0.1170    -1.1610 hn         1 3WC       0.403000
     26 H131         4.8440    -1.7000     0.4090 h1         1 3WC       0.061950
     27 H132         4.1070    -0.6170     1.5990 h1         1 3WC       0.061950
     28 H151         2.8570    -1.6060    -1.0290 h1         1 3WC       0.051450
     29 H152         2.3530    -1.9840     0.6280 h1         1 3WC       0.051450
     30 H20         -4.2920    -1.3430    -0.1740 ha         1 3WC       0.109000
     31 H28         -5.5490     0.6990     0.3920 ha         1 3WC       0.113000
     32 H24         -1.8630     2.8840     0.8180 ha         1 3WC       0.126000
     33 H26         -4.3440     2.8210     0.8910 ha         1 3WC       0.112000
     34 H81C         1.8160     2.1150    -0.4220 h1         1 3WC       0.051450
@<TRIPOS>BOND
     1     1     2 ar  
     2     1     9 ar  
     3     1    18 1   
     4     2     3 1   
     5     2    16 ar  
     6     3    19 1   
     7     3    20 1   
     8     3    21 1   
     9     4     5 1   
    10     4    12 1   
    11     4    22 1   
    12     4    34 1   
    13     5     6 1   
    14     5    23 1   
    15     5    24 1   
    16     6     7 1   
    17     6    25 1   
    18     7     8 1   
    19     7    26 1   
    20     7    27 1   
    21     8    12 1   
    22     8    28 1   
    23     8    29 1   
    24     9    12 1   
    25     9    15 ar  
    26    10    16 ar  
    27    10    17 ar  
    28    10    30 1   
    29    11    13 ar  
    30    11    15 ar  
    31    11    16 ar  
    32    13    14 ar  
    33    13    32 1   
    34    14    17 ar  
    35    14    33 1   
    36    17    31 1   
@<TRIPOS>SUBSTRUCTURE
     1 3WC         1 TEMP              0 ****  ****    0 ROOT
