@<TRIPOS>MOLECULE
3WC
   34    36     1     0     0
SMALL
bcc


@<TRIPOS>ATOM
      1 C4          -0.1430    -1.4610    -0.2070 ca         1 3WC      -0.294300
      2 C5          -1.4960    -1.5940    -0.1280 ca         1 3WC       0.004700
      3 C6          -2.1370    -2.9440    -0.2030 c3         1 3WC      -0.056800
      4 C8           2.4050     1.3040    -0.3380 c6         1 3WC       0.181300
      5 C10          3.7490     1.3990     0.3700 c6         1 3WC       0.136800
      6 N12          4.6860     0.3560    -0.0060 n7         1 3WC      -0.786200
      7 C13          4.0690    -0.9450     0.1590 c6         1 3WC       0.136800
      8 C15          2.7270    -1.0960    -0.5490 c6         1 3WC       0.181300
      9 C11          0.4670    -0.1660    -0.1420 ca         1 3WC       0.708200
     10 C20         -3.6970    -0.4340     0.1220 ca         1 3WC      -0.093000
     11 C22         -1.6050     0.8200     0.0610 ca         1 3WC       0.459600
     12 N10          1.8250    -0.0210    -0.1750 nh         1 3WC      -0.782300
     13 C24         -2.3590     2.0080     0.2000 ca         1 3WC      -0.188300
     14 C26         -3.7260     1.9630     0.2970 ca         1 3WC      -0.108000
     15 N11         -0.2610     0.9220    -0.0270 nb         1 3WC      -0.772000
     16 C2          -2.2920    -0.4170     0.0210 ca         1 3WC      -0.190300
     17 C28         -4.4060     0.7330     0.2580 ca         1 3WC      -0.150000
     18 H4           0.4540    -2.3540    -0.3250 ha         1 3WC       0.136000
     19 H61C        -2.7260    -3.1530     0.6910 hc         1 3WC       0.048033
     20 H62C        -2.8170    -3.0110    -1.0550 hc         1 3WC       0.048033
     21 H63C        -1.3910    -3.7290    -0.3060 hc         1 3WC       0.048033
     22 H82C         2.5380     1.5220    -1.4080 h1         1 3WC       0.051450
     23 H101         4.1890     2.3760     0.1610 h1         1 3WC       0.061950
     24 H102         3.5880     1.3420     1.4510 h1         1 3WC       0.061950
     25 H12          4.9540     0.4800    -0.9760 hn         1 3WC       0.347800
     26 H131         4.7480    -1.7190    -0.2040 h1         1 3WC       0.061950
     27 H132         3.9220    -1.1210     1.2300 h1         1 3WC       0.061950
     28 H151         2.8810    -1.1030    -1.6370 h1         1 3WC       0.051450
     29 H152         2.3130    -2.0630    -0.2760 h1         1 3WC       0.051450
     30 H20         -4.2270    -1.3780     0.0950 ha         1 3WC       0.127000
     31 H28         -5.4850     0.7090     0.3360 ha         1 3WC       0.131000
     32 H24         -1.8290     2.9520     0.2300 ha         1 3WC       0.144000
     33 H26         -4.2880     2.8820     0.4070 ha         1 3WC       0.130000
     34 H81C         1.7190     2.0460     0.0600 h1         1 3WC       0.051450
@<TRIPOS>BOND
     1     1     2 ar  
     2     1     9 ar  
     3     1    18 1   
     4     2     3 1   
     5     2    16 ar  
     6     3    19 1   
     7     3    20 1   
     8     3    21 1   
     9     4     5 1   
    10     4    12 1   
    11     4    22 1   
    12     4    34 1   
    13     5     6 1   
    14     5    23 1   
    15     5    24 1   
    16     6     7 1   
    17     6    25 1   
    18     7     8 1   
    19     7    26 1   
    20     7    27 1   
    21     8    12 1   
    22     8    28 1   
    23     8    29 1   
    24     9    12 1   
    25     9    15 ar  
    26    10    16 ar  
    27    10    17 ar  
    28    10    30 1   
    29    11    13 ar  
    30    11    15 ar  
    31    11    16 ar  
    32    13    14 ar  
    33    13    32 1   
    34    14    17 ar  
    35    14    33 1   
    36    17    31 1   
@<TRIPOS>SUBSTRUCTURE
     1 3WC         1 TEMP              0 ****  ****    0 ROOT
