@<TRIPOS>MOLECULE
3WD
  114   116     1     0     0
SMALL
abcg2


@<TRIPOS>ATOM
      1 N5          -7.7770     1.8390     3.3330 n8         1 3WD      -1.039200
      2 C26         -8.4040     1.6610     2.0370 c3         1 3WD       0.127200
      3 C15         -7.4470     1.5080     0.8360 c          1 3WD       0.564100
      4 O6          -7.8790     1.2660    -0.2840 o          1 3WD      -0.610100
      5 C27         -9.2740     0.4040     2.0960 c3         1 3WD      -0.080600
      6 C28         -9.2770     2.8880     1.7660 c3         1 3WD      -0.080600
      7 N4          -6.1400     1.6740     1.0930 ns         1 3WD      -0.497900
      8 C14         -5.1020     1.5420     0.0990 c3         1 3WD       0.036700
      9 C13         -4.3650     0.2270     0.3660 c          1 3WD       0.588100
     10 O5          -3.8550     0.0760     1.4700 o          1 3WD      -0.626100
     11 C20         -4.1130     2.7170     0.1520 c3         1 3WD      -0.067700
     12 C21         -2.9990     2.5320    -0.8740 c3         1 3WD      -0.090600
     13 C22         -4.8390     4.0360    -0.0880 c3         1 3WD      -0.090600
     14 N3          -4.3060    -0.6970    -0.6140 n          1 3WD      -0.391800
     15 C11         -2.2040    -1.7660    -1.2800 c3         1 3WD       0.161300
     16 C16         -4.2860    -3.1890    -0.5450 c3         1 3WD      -0.057700
     17 C12         -3.4760    -1.8870    -0.4120 c3         1 3WD       0.116700
     18 C10         -0.9670    -2.4310    -0.6580 c3         1 3WD      -0.189400
     19 C5           0.3030    -1.5990    -0.7540 c          1 3WD       0.599100
     20 O3          -2.4870    -2.2580    -2.5690 os         1 3WD      -0.461000
     21 O4           0.2920    -0.4290    -1.1160 o          1 3WD      -0.605100
     22 C17         -5.4430    -3.2430     0.4710 c3         1 3WD      -0.073400
     23 C18         -6.7350    -2.5350     0.0760 c3         1 3WD      -0.087100
     24 C19         -3.3910    -4.4140    -0.3540 c3         1 3WD      -0.088100
     25 C23         -4.9070    -0.4890    -1.9240 c3         1 3WD       0.080300
     26 C24         -1.5780    -1.8580    -3.5620 c3         1 3WD       0.145900
     27 C3           2.7000    -3.3280     1.1990 c5         1 3WD      -0.093400
     28 C7           4.6070    -0.6310    -1.9050 c3         1 3WD      -0.144700
     29 C8           4.5060     0.7100    -1.2080 c          1 3WD       0.595100
     30 N1           1.4450    -2.2240    -0.4110 n          1 3WD      -0.412800
     31 C1           2.7310    -1.5240    -0.4290 c5         1 3WD       0.092700
     32 C2           3.6460    -2.3930     0.4520 c5         1 3WD      -0.091400
     33 C4           1.5620    -3.5340     0.2140 c5         1 3WD       0.104000
     34 C6           3.2490    -1.3470    -1.8620 c3         1 3WD       0.169300
     35 O1           3.4070    -2.6050    -2.4760 os         1 3WD      -0.465000
     36 O2           3.7550     1.5910    -1.5920 o          1 3WD      -0.575100
     37 N6           5.9650     4.4300     0.2920 nc         1 3WD      -0.639000
     38 N2           5.3160     0.8730    -0.1410 ns         1 3WD      -0.517900
     39 C29          5.3060     2.0730     0.6560 c3         1 3WD       0.085400
     40 C30          5.9120     1.7900     2.0360 c3         1 3WD      -0.042100
     41 C31          5.2090     0.6730     2.7610 ca         1 3WD      -0.087300
     42 C32          6.0570     3.1810    -0.0260 cd         1 3WD       0.417700
     43 C33          5.9110    -0.4560     3.1710 ca         1 3WD      -0.108000
     44 C34          5.2710    -1.4880     3.8480 ca         1 3WD      -0.108500
     45 C35          3.9120    -1.4060     4.1120 ca         1 3WD      -0.112000
     46 C36          3.1980    -0.2880     3.6960 ca         1 3WD      -0.108500
     47 C37          3.8430     0.7430     3.0300 ca         1 3WD      -0.108000
     48 S1           7.2020     2.8410    -1.2730 ss         1 3WD      -0.026400
     49 C38          7.5720     4.5120    -1.3560 cd         1 3WD      -0.271000
     50 C39          6.8180     5.1920    -0.4560 cc         1 3WD       0.279900
     51 H45         -7.1810     1.0640     3.5930 hn         1 3WD       0.414500
     52 H46         -7.2440     2.6960     3.4010 hn         1 3WD       0.414500
     53 H48         -9.9880     0.4970     2.9150 hc         1 3WD       0.047533
     54 H49         -9.8280     0.2610     1.1710 hc         1 3WD       0.047533
     55 H50         -8.6730    -0.4920     2.2700 hc         1 3WD       0.047533
     56 H51         -8.6780     3.8010     1.7290 hc         1 3WD       0.047533
     57 H52         -9.8090     2.7980     0.8210 hc         1 3WD       0.047533
     58 H53        -10.0110     2.9990     2.5640 hc         1 3WD       0.047533
     59 H19         -5.8500     1.8150     2.0470 hn         1 3WD       0.317500
     60 H18         -5.5880     1.5580    -0.8740 h1         1 3WD       0.094700
     61 H29         -3.6650     2.7390     1.1510 hc         1 3WD       0.063700
     62 H30         -3.4060     2.4820    -1.8870 hc         1 3WD       0.039533
     63 H31         -2.3120     3.3780    -0.8410 hc         1 3WD       0.039533
     64 H32         -2.4050     1.6320    -0.7050 hc         1 3WD       0.039533
     65 H33         -5.6230     4.2140     0.6480 hc         1 3WD       0.039533
     66 H34         -4.1400     4.8720    -0.0330 hc         1 3WD       0.039533
     67 H35         -5.2990     4.0530    -1.0790 hc         1 3WD       0.039533
     68 H16         -1.9870    -0.6910    -1.3460 h1         1 3WD       0.070700
     69 H20         -4.7160    -3.2620    -1.5490 hc         1 3WD       0.062700
     70 H17         -3.1430    -1.8320     0.6240 h1         1 3WD       0.086700
     71 H14         -1.1430    -2.6330     0.4030 hc         1 3WD       0.070200
     72 H15         -0.7930    -3.4100    -1.1100 hc         1 3WD       0.070200
     73 H21         -5.6880    -4.2970     0.6300 hc         1 3WD       0.037700
     74 H22         -5.0940    -2.8740     1.4410 hc         1 3WD       0.037700
     75 H23         -6.6590    -1.4510     0.1010 hc         1 3WD       0.033367
     76 H24         -7.0480    -2.8210    -0.9300 hc         1 3WD       0.033367
     77 H25         -7.5410    -2.8140     0.7570 hc         1 3WD       0.033367
     78 H26         -3.9950    -5.3210    -0.3660 hc         1 3WD       0.033700
     79 H27         -2.6490    -4.5170    -1.1440 hc         1 3WD       0.033700
     80 H28         -2.8670    -4.3870     0.6040 hc         1 3WD       0.033700
     81 H36         -4.3480     0.2300    -2.5270 h1         1 3WD       0.049367
     82 H37         -4.9190    -1.4280    -2.4660 h1         1 3WD       0.049367
     83 H38         -5.9390    -0.1550    -1.8400 h1         1 3WD       0.049367
     84 H39         -1.9530    -2.2210    -4.5180 h1         1 3WD       0.031033
     85 H40         -1.4800    -0.7680    -3.6160 h1         1 3WD       0.031033
     86 H41         -0.5770    -2.2770    -3.4130 h1         1 3WD       0.031033
     87 H7           3.1730    -4.2640     1.4960 hc         1 3WD       0.053700
     88 H8           2.3220    -2.8440     2.1020 hc         1 3WD       0.053700
     89 H9           5.3430    -1.2580    -1.3920 hc         1 3WD       0.058700
     90 H42          2.3760    -2.1470    -4.2270 h1         1 3WD       0.029033
     91 H43          2.8120    -3.8420    -3.9600 h1         1 3WD       0.029033
     92 H44          1.4730    -3.1290    -3.0580 h1         1 3WD       0.029033
     93 H6           2.5940    -0.5360     0.0190 h1         1 3WD       0.081700
     94 H2           4.2420    -1.7800     1.1280 hc         1 3WD       0.058700
     95 H3           4.3360    -2.9770    -0.1590 hc         1 3WD       0.058700
     96 H4           1.8050    -4.2990    -0.5300 h1         1 3WD       0.049200
     97 H5           0.6390    -3.8330     0.7070 h1         1 3WD       0.049200
     98 H1           2.5280    -0.7350    -2.4160 h1         1 3WD       0.081700
     99 H10          5.9080     0.1090     0.1460 hn         1 3WD       0.321500
    100 H54          4.2750     2.4120     0.7840 h1         1 3WD       0.100700
    101 H55          6.9730     1.5490     1.9230 hc         1 3WD       0.066700
    102 H56          5.8630     2.7140     2.6160 hc         1 3WD       0.066700
    103 H57          6.9730    -0.5300     2.9630 ha         1 3WD       0.115500
    104 H58          5.8350    -2.3560     4.1640 ha         1 3WD       0.116500
    105 H59          3.4090    -2.2090     4.6340 ha         1 3WD       0.113000
    106 H60          2.1360    -0.2180     3.8940 ha         1 3WD       0.116500
    107 H61          3.2740     1.6110     2.7180 ha         1 3WD       0.115500
    108 H62          8.2990     4.9020    -2.0510 h4         1 3WD       0.160000
    109 H63          6.8510     6.2620    -0.3080 h4         1 3WD       0.042100
    110 C9           5.0850    -0.4110    -3.3410 c3         1 3WD      -0.081100
    111 C25          2.4690    -2.9320    -3.4690 c3         1 3WD       0.154900
    112 H11          4.3700     0.1880    -3.9070 hc         1 3WD       0.046367
    113 H12          6.0450     0.1070    -3.3550 hc         1 3WD       0.046367
    114 H13          5.2170    -1.3630    -3.8500 hc         1 3WD       0.046367
@<TRIPOS>BOND
     1     1     2 1   
     2     1    51 1   
     3     1    52 1   
     4     2     3 1   
     5     2     5 1   
     6     2     6 1   
     7     3     4 2   
     8     3     7 1   
     9     5    53 1   
    10     5    54 1   
    11     5    55 1   
    12     6    56 1   
    13     6    57 1   
    14     6    58 1   
    15     7     8 1   
    16     7    59 1   
    17     8     9 1   
    18     8    11 1   
    19     8    60 1   
    20     9    10 2   
    21     9    14 1   
    22    11    12 1   
    23    11    13 1   
    24    11    61 1   
    25    12    62 1   
    26    12    63 1   
    27    12    64 1   
    28    13    65 1   
    29    13    66 1   
    30    13    67 1   
    31    14    17 1   
    32    14    25 1   
    33    15    17 1   
    34    15    18 1   
    35    15    20 1   
    36    15    68 1   
    37    16    17 1   
    38    16    22 1   
    39    16    24 1   
    40    16    69 1   
    41    17    70 1   
    42    18    19 1   
    43    18    71 1   
    44    18    72 1   
    45    19    21 2   
    46    19    30 1   
    47    20    26 1   
    48    22    23 1   
    49    22    73 1   
    50    22    74 1   
    51    23    75 1   
    52    23    76 1   
    53    23    77 1   
    54    24    78 1   
    55    24    79 1   
    56    24    80 1   
    57    25    81 1   
    58    25    82 1   
    59    25    83 1   
    60    26    84 1   
    61    26    85 1   
    62    26    86 1   
    63    27    32 1   
    64    27    33 1   
    65    27    87 1   
    66    27    88 1   
    67    28    29 1   
    68    28    34 1   
    69    28    89 1   
    70    28   110 1   
    71    29    36 2   
    72    29    38 1   
    73    30    31 1   
    74    30    33 1   
    75    31    32 1   
    76    31    34 1   
    77    31    93 1   
    78    32    94 1   
    79    32    95 1   
    80    33    96 1   
    81    33    97 1   
    82    34    35 1   
    83    34    98 1   
    84    35   111 1   
    85    37    42 2   
    86    37    50 1   
    87    38    39 1   
    88    38    99 1   
    89    39    40 1   
    90    39    42 1   
    91    39   100 1   
    92    40    41 1   
    93    40   101 1   
    94    40   102 1   
    95    41    43 ar  
    96    41    47 ar  
    97    42    48 1   
    98    43    44 ar  
    99    43   103 1   
   100    44    45 ar  
   101    44   104 1   
   102    45    46 ar  
   103    45   105 1   
   104    46    47 ar  
   105    46   106 1   
   106    47   107 1   
   107    48    49 1   
   108    49    50 2   
   109    49   108 1   
   110    50   109 1   
   111    90   111 1   
   112    91   111 1   
   113    92   111 1   
   114   110   112 1   
   115   110   113 1   
   116   110   114 1   
@<TRIPOS>SUBSTRUCTURE
     1 3WD         1 TEMP              0 ****  ****    0 ROOT
