@<TRIPOS>MOLECULE
3WD
  114   116     1     0     0
SMALL
No Charge or Current Charge


@<TRIPOS>ATOM
      1 N5          -7.8820     2.2900     3.2950 n8         1 3WD      -1.039200
      2 C26         -8.6180     2.4530     1.9940 c3         1 3WD       0.127200
      3 C15         -7.7840     2.1300     0.6800 c          1 3WD       0.564100
      4 O6          -8.2610     2.2120    -0.4460 o          1 3WD      -0.610100
      5 C27         -9.8400     1.5040     2.0520 c3         1 3WD      -0.080600
      6 C28         -9.0890     3.9260     1.9300 c3         1 3WD      -0.080600
      7 N4          -6.4720     1.7380     0.8740 ns         1 3WD      -0.497900
      8 C14         -5.5090     1.3970    -0.2010 c3         1 3WD       0.036700
      9 C13         -4.7430     0.0970     0.2200 c          1 3WD       0.588100
     10 O5          -4.3890    -0.0450     1.3870 o          1 3WD      -0.626100
     11 C20         -4.5400     2.5950    -0.4780 c3         1 3WD      -0.067700
     12 C21         -3.4750     2.2910    -1.5580 c3         1 3WD      -0.090600
     13 C22         -5.2900     3.9060    -0.8290 c3         1 3WD      -0.090600
     14 N3          -4.4360    -0.8960    -0.7530 n          1 3WD      -0.391800
     15 C11         -2.2250    -1.9580    -1.2470 c3         1 3WD       0.161300
     16 C16         -4.3030    -3.4510    -0.4100 c3         1 3WD      -0.057700
     17 C12         -3.5540    -2.0570    -0.4120 c3         1 3WD       0.116700
     18 C10         -0.9580    -2.5150    -0.5300 c3         1 3WD      -0.189400
     19 C5           0.3250    -1.6770    -0.6770 c          1 3WD       0.599100
     20 O3          -2.4050    -2.6450    -2.5080 os         1 3WD      -0.461000
     21 O4           0.2910    -0.5210    -1.0750 o          1 3WD      -0.605100
     22 C17         -5.5400    -3.5030     0.5500 c3         1 3WD      -0.073400
     23 C18         -6.8270    -2.7950     0.0690 c3         1 3WD      -0.087100
     24 C19         -3.3610    -4.6350    -0.0640 c3         1 3WD      -0.088100
     25 C23         -5.0300    -0.8610    -2.1160 c3         1 3WD       0.080300
     26 C24         -1.3940    -2.4180    -3.5060 c3         1 3WD       0.145900
     27 C3           2.9360    -3.1480     1.3270 c5         1 3WD      -0.093400
     28 C7           4.6010    -0.2780    -1.9600 c3         1 3WD      -0.144700
     29 C8           4.4650     0.9390    -1.0340 c          1 3WD       0.595100
     30 N1           1.5590    -2.2890    -0.3670 n          1 3WD      -0.412800
     31 C1           2.8500    -1.5530    -0.4750 c5         1 3WD       0.092700
     32 C2           3.8340    -2.5380     0.2310 c5         1 3WD      -0.091400
     33 C4           1.6600    -3.4750     0.5180 c5         1 3WD       0.104000
     34 C6           3.3100    -1.1430    -1.9270 c3         1 3WD       0.169300
     35 O1           3.6010    -2.3110    -2.7400 os         1 3WD      -0.465000
     36 O2           3.6200     1.8050    -1.1960 o          1 3WD      -0.575100
     37 N6           5.2330     4.5200     0.9790 nc         1 3WD      -0.639000
     38 N2           5.3650     0.9850     0.0040 ns         1 3WD      -0.517900
     39 C29          5.3940     2.0340     1.0410 c3         1 3WD       0.085400
     40 C30          6.3110     1.6090     2.2110 c3         1 3WD      -0.042100
     41 C31          5.9660     0.2320     2.7710 ca         1 3WD      -0.087300
     42 C32          5.7720     3.4040     0.5000 cd         1 3WD       0.417700
     43 C33          6.8200    -0.8660     2.5450 ca         1 3WD      -0.108000
     44 C34          6.4980    -2.1330     3.0620 ca         1 3WD      -0.108500
     45 C35          5.3230    -2.3100     3.8110 ca         1 3WD      -0.112000
     46 C36          4.4690    -1.2180     4.0400 ca         1 3WD      -0.108500
     47 C37          4.7880     0.0470     3.5200 ca         1 3WD      -0.108000
     48 S1           6.9920     3.6050    -0.7560 ss         1 3WD      -0.026400
     49 C38          6.7160     5.3320    -0.6190 cd         1 3WD      -0.271000
     50 C39          5.7690     5.6080     0.3360 cc         1 3WD       0.279900
     51 H45         -7.5300     1.3300     3.3920 hn         1 3WD       0.414500
     52 H46         -7.0460     2.8870     3.3120 hn         1 3WD       0.414500
     53 H48        -10.4500     1.6970     2.9430 hc         1 3WD       0.047533
     54 H49        -10.4810     1.6380     1.1720 hc         1 3WD       0.047533
     55 H50         -9.5190     0.4560     2.0770 hc         1 3WD       0.047533
     56 H51         -8.2320     4.6070     1.8690 hc         1 3WD       0.047533
     57 H52         -9.7170     4.0970     1.0470 hc         1 3WD       0.047533
     58 H53         -9.6770     4.1930     2.8160 hc         1 3WD       0.047533
     59 H19         -6.1540     1.6600     1.8320 hn         1 3WD       0.317500
     60 H18         -6.0770     1.1940    -1.1150 h1         1 3WD       0.094700
     61 H29         -3.9930     2.7850     0.4550 hc         1 3WD       0.063700
     62 H30         -3.9430     2.1240    -2.5350 hc         1 3WD       0.039533
     63 H31         -2.7810     3.1350    -1.6610 hc         1 3WD       0.039533
     64 H32         -2.8770     1.4100    -1.2980 hc         1 3WD       0.039533
     65 H33         -5.9280     4.2360    -0.0010 hc         1 3WD       0.039533
     66 H34         -4.5810     4.7160    -1.0360 hc         1 3WD       0.039533
     67 H35         -5.9200     3.7680    -1.7170 hc         1 3WD       0.039533
     68 H16         -2.0710    -0.8860    -1.4300 h1         1 3WD       0.070700
     69 H20         -4.6720    -3.6450    -1.4230 hc         1 3WD       0.062700
     70 H17         -3.2290    -1.9230     0.6260 h1         1 3WD       0.086700
     71 H14         -1.1290    -2.6090     0.5480 hc         1 3WD       0.070200
     72 H15         -0.7350    -3.5490    -0.8100 hc         1 3WD       0.070200
     73 H21         -5.8140    -4.5530     0.7140 hc         1 3WD       0.037700
     74 H22         -5.2570    -3.1100     1.5350 hc         1 3WD       0.037700
     75 H23         -6.7600    -1.7080     0.1680 hc         1 3WD       0.033367
     76 H24         -7.0450    -3.0450    -0.9760 hc         1 3WD       0.033367
     77 H25         -7.6800    -3.1200     0.6780 hc         1 3WD       0.033367
     78 H26         -3.9210    -5.5750     0.0140 hc         1 3WD       0.033700
     79 H27         -2.6150    -4.7900    -0.8490 hc         1 3WD       0.033700
     80 H28         -2.8470    -4.4670     0.8900 hc         1 3WD       0.033700
     81 H36         -4.6240    -0.0160    -2.6840 h1         1 3WD       0.049367
     82 H37         -4.8050    -1.7800    -2.6680 h1         1 3WD       0.049367
     83 H38         -6.1210    -0.7660    -2.0500 h1         1 3WD       0.049367
     84 H39         -1.6810    -2.8960    -4.4510 h1         1 3WD       0.031033
     85 H40         -1.2630    -1.3440    -3.6940 h1         1 3WD       0.031033
     86 H41         -0.4320    -2.8410    -3.1960 h1         1 3WD       0.031033
     87 H7           3.3770    -4.0350     1.7960 hc         1 3WD       0.053700
     88 H8           2.7240    -2.4230     2.1200 hc         1 3WD       0.053700
     89 H9           5.4260    -0.8970    -1.5850 hc         1 3WD       0.058700
     90 H42          1.7610    -2.3770    -3.7430 h1         1 3WD       0.029033
     91 H43          2.8190    -3.7790    -3.9990 h1         1 3WD       0.029033
     92 H44          1.9630    -3.6060    -2.4630 h1         1 3WD       0.029033
     93 H6           2.7630    -0.6360     0.1240 h1         1 3WD       0.081700
     94 H2           4.7100    -2.0270     0.6450 hc         1 3WD       0.058700
     95 H3           4.2020    -3.3170    -0.4470 hc         1 3WD       0.058700
     96 H4           1.7810    -4.3910    -0.0760 h1         1 3WD       0.049200
     97 H5           0.7960    -3.6010     1.1820 h1         1 3WD       0.049200
     98 H1           2.5070    -0.5500    -2.3860 h1         1 3WD       0.081700
     99 H10          6.0260     0.2190     0.0740 hn         1 3WD       0.321500
    100 H54          4.3740     2.1210     1.4380 h1         1 3WD       0.100700
    101 H55          7.3540     1.6310     1.8730 hc         1 3WD       0.066700
    102 H56          6.2380     2.3590     3.0090 hc         1 3WD       0.066700
    103 H57          7.7350    -0.7410     1.9700 ha         1 3WD       0.115500
    104 H58          7.1600    -2.9780     2.8830 ha         1 3WD       0.116500
    105 H59          5.0740    -3.2900     4.2110 ha         1 3WD       0.113000
    106 H60          3.5580    -1.3540     4.6200 ha         1 3WD       0.116500
    107 H61          4.1200     0.8860     3.7030 ha         1 3WD       0.115500
    108 H62          7.2600     6.0350    -1.2360 h4         1 3WD       0.160000
    109 H63          5.4190     6.5930     0.6180 h4         1 3WD       0.042100
    110 C9           4.9920     0.1800    -3.3900 c3         1 3WD      -0.081100
    111 C25          2.4780    -3.0490    -3.2540 c3         1 3WD       0.154900
    112 H11          4.1870     0.7690    -3.8460 hc         1 3WD       0.046367
    113 H12          5.8960     0.8000    -3.3610 hc         1 3WD       0.046367
    114 H13          5.1970    -0.6800    -4.0390 hc         1 3WD       0.046367
@<TRIPOS>BOND
     1     1     2 1   
     2     1    51 1   
     3     1    52 1   
     4     2     3 1   
     5     2     5 1   
     6     2     6 1   
     7     3     4 2   
     8     3     7 1   
     9     5    53 1   
    10     5    54 1   
    11     5    55 1   
    12     6    56 1   
    13     6    57 1   
    14     6    58 1   
    15     7     8 1   
    16     7    59 1   
    17     8     9 1   
    18     8    11 1   
    19     8    60 1   
    20     9    10 2   
    21     9    14 1   
    22    11    12 1   
    23    11    13 1   
    24    11    61 1   
    25    12    62 1   
    26    12    63 1   
    27    12    64 1   
    28    13    65 1   
    29    13    66 1   
    30    13    67 1   
    31    14    17 1   
    32    14    25 1   
    33    15    17 1   
    34    15    18 1   
    35    15    20 1   
    36    15    68 1   
    37    16    17 1   
    38    16    22 1   
    39    16    24 1   
    40    16    69 1   
    41    17    70 1   
    42    18    19 1   
    43    18    71 1   
    44    18    72 1   
    45    19    21 2   
    46    19    30 1   
    47    20    26 1   
    48    22    23 1   
    49    22    73 1   
    50    22    74 1   
    51    23    75 1   
    52    23    76 1   
    53    23    77 1   
    54    24    78 1   
    55    24    79 1   
    56    24    80 1   
    57    25    81 1   
    58    25    82 1   
    59    25    83 1   
    60    26    84 1   
    61    26    85 1   
    62    26    86 1   
    63    27    32 1   
    64    27    33 1   
    65    27    87 1   
    66    27    88 1   
    67    28    29 1   
    68    28    34 1   
    69    28    89 1   
    70    28   110 1   
    71    29    36 2   
    72    29    38 1   
    73    30    31 1   
    74    30    33 1   
    75    31    32 1   
    76    31    34 1   
    77    31    93 1   
    78    32    94 1   
    79    32    95 1   
    80    33    96 1   
    81    33    97 1   
    82    34    35 1   
    83    34    98 1   
    84    35   111 1   
    85    37    42 2   
    86    37    50 1   
    87    38    39 1   
    88    38    99 1   
    89    39    40 1   
    90    39    42 1   
    91    39   100 1   
    92    40    41 1   
    93    40   101 1   
    94    40   102 1   
    95    41    43 ar  
    96    41    47 ar  
    97    42    48 1   
    98    43    44 ar  
    99    43   103 1   
   100    44    45 ar  
   101    44   104 1   
   102    45    46 ar  
   103    45   105 1   
   104    46    47 ar  
   105    46   106 1   
   106    47   107 1   
   107    48    49 1   
   108    49    50 2   
   109    49   108 1   
   110    50   109 1   
   111    90   111 1   
   112    91   111 1   
   113    92   111 1   
   114   110   112 1   
   115   110   113 1   
   116   110   114 1   
@<TRIPOS>SUBSTRUCTURE
     1 3WD         1 TEMP              0 ****  ****    0 ROOT
