@<TRIPOS>MOLECULE
3WE
   36    40     1     0     0
SMALL
bcc


@<TRIPOS>ATOM
      1 BR1          2.7070    -1.8310     0.5850 br         1 3WE      -0.014700
      2 C7           1.5840    -0.4320     0.1080 cc         1 3WE      -0.033500
      3 C8           0.2480    -0.4880    -0.1890 cd         1 3WE      -0.090300
      4 N14         -0.1910     0.7820    -0.4830 na         1 3WE      -0.075400
      5 C5           0.8610     1.6490    -0.4110 ca         1 3WE      -0.024200
      6 C4           2.0030     0.9190    -0.0190 ca         1 3WE      -0.094800
      7 C3           3.2310     1.5720     0.1390 ca         1 3WE      -0.058000
      8 C6           0.9290     3.0200    -0.6740 ca         1 3WE      -0.162000
      9 C1           2.1510     3.6380    -0.5150 ca         1 3WE      -0.094000
     10 C2           3.2920     2.9250    -0.1060 ca         1 3WE      -0.159000
     11 C20         -1.5760     1.1300    -0.7900 c5         1 3WE       0.345200
     12 N19         -2.1010     2.1480     0.0610 nu         1 3WE      -0.911200
     13 C18         -2.6460     1.6100     1.2080 c2         1 3WE       0.796100
     14 N22         -3.0500     2.1900     2.2650 n2         1 3WE      -0.851100
     15 N17         -2.6990     0.2510     1.0020 nu         1 3WE      -0.837200
     16 C16         -2.4900    -0.0440    -0.4060 c5         1 3WE       0.375600
     17 C10         -3.7790    -0.1340    -1.2240 c5         1 3WE      -0.102400
     18 C23         -4.2200    -1.5730    -0.9780 c5         1 3WE      -0.098400
     19 C13         -2.9080    -2.3560    -0.9760 c5         1 3WE       0.104000
     20 N12         -1.9160    -1.3500    -0.6060 n          1 3WE      -0.481800
     21 C11         -0.6290    -1.6540    -0.3610 c          1 3WE       0.753700
     22 O21         -0.2020    -2.7970    -0.3540 o          1 3WE      -0.590500
     23 H1           4.1140     1.0240     0.4410 ha         1 3WE       0.146000
     24 H2           0.0740     3.5880    -1.0160 ha         1 3WE       0.125000
     25 H3           2.2350     4.6980    -0.7160 ha         1 3WE       0.130000
     26 H4           4.2310     3.4510     0.0090 ha         1 3WE       0.135000
     27 H5          -1.6550     1.3990    -1.8440 h2         1 3WE       0.098700
     28 H6          -1.7380     3.0880     0.0610 hn         1 3WE       0.444800
     29 H9          -2.8830     3.1880     2.2170 hn         1 3WE       0.392400
     30 H12         -3.4070    -0.2660     1.5040 hn         1 3WE       0.443800
     31 H14         -4.5150     0.6100    -0.9210 hc         1 3WE       0.070200
     32 H15         -3.5520     0.0210    -2.2810 hc         1 3WE       0.070200
     33 H16         -4.7190    -1.6600    -0.0110 hc         1 3WE       0.060200
     34 H17         -4.9120    -1.9370    -1.7340 hc         1 3WE       0.060200
     35 H18         -2.9150    -3.1840    -0.2680 h1         1 3WE       0.064200
     36 H19         -2.6720    -2.7590    -1.9640 h1         1 3WE       0.064200
@<TRIPOS>BOND
     1     1     2 1   
     2     2     3 2   
     3     2     6 1   
     4     3     4 1   
     5     3    21 1   
     6     4     5 1   
     7     4    11 1   
     8     5     6 ar  
     9     5     8 ar  
    10     6     7 ar  
    11     7    10 ar  
    12     7    23 1   
    13     8     9 ar  
    14     8    24 1   
    15     9    10 ar  
    16     9    25 1   
    17    10    26 1   
    18    11    12 1   
    19    11    16 1   
    20    11    27 1   
    21    12    13 1   
    22    12    28 1   
    23    13    14 2   
    24    13    15 1   
    25    14    29 1   
    26    15    16 1   
    27    15    30 1   
    28    16    17 1   
    29    16    20 1   
    30    17    18 1   
    31    17    31 1   
    32    17    32 1   
    33    18    19 1   
    34    18    33 1   
    35    18    34 1   
    36    19    20 1   
    37    19    35 1   
    38    19    36 1   
    39    20    21 1   
    40    21    22 2   
@<TRIPOS>SUBSTRUCTURE
     1 3WE         1 TEMP              0 ****  ****    0 ROOT
