@<TRIPOS>MOLECULE
3WE
   36    40     1     0     0
SMALL
No Charge or Current Charge


@<TRIPOS>ATOM
      1 Br1          2.8350    -1.8680     0.3740 br         1 3WE      -0.014700
      2 C7           1.6830    -0.4090     0.0270 cc         1 3WE      -0.033500
      3 C8           0.3060    -0.4530    -0.2030 cd         1 3WE      -0.090300
      4 N14         -0.1790     0.8520    -0.4320 na         1 3WE      -0.104700
      5 C5           0.9290     1.6890    -0.3900 ca         1 3WE      -0.024200
      6 C4           2.0560     0.9710    -0.0960 ca         1 3WE      -0.094800
      7 C3           3.3180     1.5740     0.0080 ca         1 3WE      -0.040000
      8 C6           0.9910     3.0740    -0.6200 ca         1 3WE      -0.144000
      9 C1           2.2450     3.7120    -0.5190 ca         1 3WE      -0.076000
     10 C2           3.4030     2.9660    -0.2030 ca         1 3WE      -0.141000
     11 C20         -1.5880     1.1360    -0.6910 c5         1 3WE       0.374500
     12 N19         -1.9950     2.1620     0.3000 nu         1 3WE      -0.966400
     13 C18         -2.7330     1.5510     1.2310 c2         1 3WE       0.796100
     14 N22         -3.4750     2.2250     1.9630 n2         1 3WE      -0.851100
     15 N17         -2.9810     0.2570     1.0400 nu         1 3WE      -0.892400
     16 C16         -2.5280    -0.0710    -0.3060 c5         1 3WE       0.375600
     17 C10         -3.8000    -0.1460    -1.1940 c5         1 3WE      -0.102400
     18 C23         -4.2400    -1.6230    -0.9520 c5         1 3WE      -0.098400
     19 C13         -2.8880    -2.4040    -0.9700 c5         1 3WE       0.104000
     20 N12         -1.9130    -1.3860    -0.5230 n          1 3WE      -0.414800
     21 C11         -0.5520    -1.6710    -0.2880 c          1 3WE       0.611200
     22 O21         -0.1400    -2.8220    -0.2290 o          1 3WE      -0.515000
     23 H1           4.2040     0.9870     0.2370 ha         1 3WE       0.128000
     24 H2           0.1020     3.6450    -0.8770 ha         1 3WE       0.107000
     25 H3           2.3210     4.7840    -0.6900 ha         1 3WE       0.112000
     26 H4           4.3670     3.4650    -0.1310 ha         1 3WE       0.117000
     27 H5          -1.6880     1.4420    -1.7400 h2         1 3WE       0.098700
     28 H6          -1.2530     2.7190     0.7080 hn         1 3WE       0.500000
     29 H9          -3.2460     3.2040     1.7660 hn         1 3WE       0.392400
     30 H12         -3.9220     0.0220     1.3230 hn         1 3WE       0.499000
     31 H14         -4.5720     0.5880    -0.9340 hc         1 3WE       0.070200
     32 H15         -3.5510     0.0120    -2.2510 hc         1 3WE       0.070200
     33 H16         -4.7400    -1.7350     0.0170 hc         1 3WE       0.060200
     34 H17         -4.9390    -1.9870    -1.7140 hc         1 3WE       0.060200
     35 H18         -2.9110    -3.2780    -0.3050 h1         1 3WE       0.064200
     36 H19         -2.6410    -2.7490    -1.9830 h1         1 3WE       0.064200
@<TRIPOS>BOND
     1     1     2 1   
     2     2     3 2   
     3     2     6 1   
     4     3     4 1   
     5     3    21 1   
     6     4     5 1   
     7     4    11 1   
     8     5     6 ar  
     9     5     8 ar  
    10     6     7 ar  
    11     7    10 ar  
    12     7    23 1   
    13     8     9 ar  
    14     8    24 1   
    15     9    10 ar  
    16     9    25 1   
    17    10    26 1   
    18    11    12 1   
    19    11    16 1   
    20    11    27 1   
    21    12    13 1   
    22    12    28 1   
    23    13    14 2   
    24    13    15 1   
    25    14    29 1   
    26    15    16 1   
    27    15    30 1   
    28    16    17 1   
    29    16    20 1   
    30    17    18 1   
    31    17    31 1   
    32    17    32 1   
    33    18    19 1   
    34    18    33 1   
    35    18    34 1   
    36    19    20 1   
    37    19    35 1   
    38    19    36 1   
    39    20    21 1   
    40    21    22 2   
@<TRIPOS>SUBSTRUCTURE
     1 3WE         1 TEMP              0 ****  ****    0 ROOT
