@<TRIPOS>MOLECULE
3WF
   46    49     1     0     0
SMALL
bcc


@<TRIPOS>ATOM
      1 CAB         -2.0380     0.1350    -2.0850 c3         1 3WF      -0.078100
      2 CAV         -2.1920     0.3350    -0.5720 c5         1 3WF      -0.022000
      3 CAN         -1.5770     1.6700    -0.1640 c6         1 3WF      -0.060400
      4 CAK         -0.0530     1.6490    -0.3210 c6         1 3WF      -0.069400
      5 CAR          0.5990     0.4720     0.4150 c6         1 3WF      -0.005400
      6 CAQ          2.1110     0.4270     0.2820 ca         1 3WF      -0.100300
      7 CAG          2.8630     1.5980     0.1720 ca         1 3WF      -0.092000
      8 CAF          4.2430     1.5910     0.0770 ca         1 3WF      -0.164000
      9 CAO          4.9220     0.3770     0.0950 ca         1 3WF       0.137100
     10 OAC          6.2700     0.3980    -0.0010 oh         1 3WF      -0.496100
     11 CAH          4.1960    -0.8000     0.2110 ca         1 3WF      -0.226000
     12 CAP          2.8050    -0.7880     0.3070 ca         1 3WF      -0.031300
     13 CAI          2.0930    -2.1140     0.4080 c6         1 3WF      -0.033100
     14 CAJ          0.6300    -1.9890     0.8050 c6         1 3WF      -0.069400
     15 CAS         -0.0330    -0.8710     0.0140 c6         1 3WF      -0.046700
     16 CAT         -1.5320    -0.7870     0.2390 c5         1 3WF      -0.066700
     17 CAL         -2.4010    -2.0170    -0.0400 c5         1 3WF      -0.063400
     18 CAM         -3.8130    -1.4420    -0.2910 c5         1 3WF      -0.104400
     19 CAU         -3.6790     0.1030    -0.1960 c5         1 3WF       0.244900
     20 OAD         -4.5260     0.8100    -1.0670 oh         1 3WF      -0.577800
     21 CAE         -3.9560     0.5330     1.1870 c1         1 3WF      -0.172100
     22 CAA         -4.2420     0.8750     2.3040 c1         1 3WF      -0.145500
     23 H1          -0.9920     0.1550    -2.3880 hc         1 3WF       0.038367
     24 H2          -2.4490    -0.8120    -2.4350 hc         1 3WF       0.038367
     25 H3          -2.5410     0.9330    -2.6310 hc         1 3WF       0.038367
     26 H4          -1.9970     2.4930    -0.7480 hc         1 3WF       0.050200
     27 H5          -1.8150     1.8750     0.8840 hc         1 3WF       0.050200
     28 H6           0.2290     1.6220    -1.3780 hc         1 3WF       0.042700
     29 H7           0.3310     2.5940     0.0680 hc         1 3WF       0.042700
     30 H8           0.3680     0.6050     1.4840 hc         1 3WF       0.052700
     31 H9           2.3650     2.5580     0.1590 ha         1 3WF       0.131000
     32 H10          4.7930     2.5200    -0.0130 ha         1 3WF       0.145000
     33 H11          6.6180    -0.5010     0.0210 ho         1 3WF       0.423000
     34 H12          4.7180    -1.7520     0.2290 ha         1 3WF       0.126000
     35 H13          2.1560    -2.6160    -0.5630 hc         1 3WF       0.048200
     36 H14          2.6260    -2.7610     1.1100 hc         1 3WF       0.048200
     37 H15          0.1280    -2.9420     0.6270 hc         1 3WF       0.043200
     38 H16          0.5400    -1.7820     1.8770 hc         1 3WF       0.043200
     39 H17          0.1670    -1.0560    -1.0500 hc         1 3WF       0.056700
     40 H18         -1.6650    -0.5310     1.3000 hc         1 3WF       0.054700
     41 H19         -2.0440    -2.5590    -0.9190 hc         1 3WF       0.045200
     42 H20         -2.3880    -2.7200     0.7920 hc         1 3WF       0.045200
     43 H21         -4.1710    -1.6960    -1.2900 hc         1 3WF       0.051700
     44 H22         -4.5510    -1.8240     0.4150 hc         1 3WF       0.051700
     45 H23         -5.4400     0.5790    -0.8670 ho         1 3WF       0.409000
     46 H24         -4.4890     1.1940     3.2910 ha         1 3WF       0.166500
@<TRIPOS>BOND
     1     1     2 1   
     2     1    23 1   
     3     1    24 1   
     4     1    25 1   
     5     2     3 1   
     6     2    16 1   
     7     2    19 1   
     8     3     4 1   
     9     3    26 1   
    10     3    27 1   
    11     4     5 1   
    12     4    28 1   
    13     4    29 1   
    14     5     6 1   
    15     5    15 1   
    16     5    30 1   
    17     6     7 ar  
    18     6    12 ar  
    19     7     8 ar  
    20     7    31 1   
    21     8     9 ar  
    22     8    32 1   
    23     9    10 1   
    24     9    11 ar  
    25    10    33 1   
    26    11    12 ar  
    27    11    34 1   
    28    12    13 1   
    29    13    14 1   
    30    13    35 1   
    31    13    36 1   
    32    14    15 1   
    33    14    37 1   
    34    14    38 1   
    35    15    16 1   
    36    15    39 1   
    37    16    17 1   
    38    16    40 1   
    39    17    18 1   
    40    17    41 1   
    41    17    42 1   
    42    18    19 1   
    43    18    43 1   
    44    18    44 1   
    45    19    20 1   
    46    19    21 1   
    47    20    45 1   
    48    21    22 3   
    49    22    46 1   
@<TRIPOS>SUBSTRUCTURE
     1 3WF         1 TEMP              0 ****  ****    0 ROOT
