@<TRIPOS>MOLECULE
3WF
   46    49     1     0     0
SMALL
No Charge or Current Charge


@<TRIPOS>ATOM
      1 CAB         -2.0980     0.1480    -2.1820 c3         1 3WF      -0.078100
      2 CAV         -2.2450     0.3100    -0.6210 c5         1 3WF      -0.022000
      3 CAN         -1.6020     1.6820    -0.2350 c6         1 3WF      -0.060400
      4 CAK         -0.0510     1.6730    -0.3980 c6         1 3WF      -0.069400
      5 CAR          0.6310     0.4980     0.3870 c6         1 3WF      -0.005400
      6 CAQ          2.1790     0.4570     0.2790 ca         1 3WF      -0.100300
      7 CAG          2.9330     1.6520     0.1950 ca         1 3WF      -0.074000
      8 CAF          4.3350     1.6150     0.1210 ca         1 3WF      -0.146000
      9 CAO          5.0070     0.3890     0.1430 ca         1 3WF       0.137100
     10 OAC          6.3670     0.3590     0.0710 oh         1 3WF      -0.535100
     11 CAH          4.2810    -0.8040     0.2480 ca         1 3WF      -0.208000
     12 CAP          2.8750    -0.7810     0.3260 ca         1 3WF      -0.031300
     13 CAI          2.1430    -2.1250     0.4400 c6         1 3WF      -0.033100
     14 CAJ          0.6540    -2.0030     0.8200 c6         1 3WF      -0.069400
     15 CAS         -0.0120    -0.8760     0.0010 c6         1 3WF      -0.046700
     16 CAT         -1.5520    -0.8140     0.2160 c5         1 3WF      -0.066700
     17 CAL         -2.4040    -2.0640    -0.1470 c5         1 3WF      -0.063400
     18 CAM         -3.8660    -1.4990    -0.2620 c5         1 3WF      -0.104400
     19 CAU         -3.7420     0.0670    -0.1510 c5         1 3WF       0.268100
     20 OAD         -4.6900     0.7180    -0.9840 oh         1 3WF      -0.640000
     21 CAE         -4.0680     0.5350     1.2210 c1         1 3WF      -0.172100
     22 CAA         -4.3800     0.9010     2.3330 c1         1 3WF      -0.233000
     23 H1          -1.0560     0.1050    -2.5120 hc         1 3WF       0.038367
     24 H2          -2.5840    -0.7550    -2.5660 hc         1 3WF       0.038367
     25 H3          -2.5590     0.9940    -2.7060 hc         1 3WF       0.038367
     26 H4          -2.0400     2.4920    -0.8350 hc         1 3WF       0.050200
     27 H5          -1.8230     1.9310     0.8110 hc         1 3WF       0.050200
     28 H6           0.2310     1.6300    -1.4580 hc         1 3WF       0.042700
     29 H7           0.3140     2.6390    -0.0290 hc         1 3WF       0.042700
     30 H8           0.4110     0.6710     1.4500 hc         1 3WF       0.052700
     31 H9           2.4500     2.6240     0.1930 ha         1 3WF       0.113000
     32 H10          4.8990     2.5410     0.0520 ha         1 3WF       0.127000
     33 H11          6.6560    -0.5780     0.1020 ho         1 3WF       0.462000
     34 H12          4.8040    -1.7570     0.2710 ha         1 3WF       0.108000
     35 H13          2.2230    -2.6460    -0.5240 hc         1 3WF       0.048200
     36 H14          2.6510    -2.7670     1.1730 hc         1 3WF       0.048200
     37 H15          0.1570    -2.9660     0.6400 hc         1 3WF       0.043200
     38 H16          0.5590    -1.7950     1.8950 hc         1 3WF       0.043200
     39 H17          0.1890    -1.0770    -1.0600 hc         1 3WF       0.056700
     40 H18         -1.6520    -0.6190     1.2910 hc         1 3WF       0.054700
     41 H19         -2.0760    -2.5200    -1.0880 hc         1 3WF       0.045200
     42 H20         -2.3300    -2.8420     0.6210 hc         1 3WF       0.045200
     43 H21         -4.3090    -1.7990    -1.2180 hc         1 3WF       0.051700
     44 H22         -4.5200    -1.9180     0.5120 hc         1 3WF       0.051700
     45 H23         -5.4600     0.8940    -0.4040 ho         1 3WF       0.448000
     46 H24         -4.6440     1.2220     3.3220 ha         1 3WF       0.254000
@<TRIPOS>BOND
     1     1     2 1   
     2     1    23 1   
     3     1    24 1   
     4     1    25 1   
     5     2     3 1   
     6     2    16 1   
     7     2    19 1   
     8     3     4 1   
     9     3    26 1   
    10     3    27 1   
    11     4     5 1   
    12     4    28 1   
    13     4    29 1   
    14     5     6 1   
    15     5    15 1   
    16     5    30 1   
    17     6     7 ar  
    18     6    12 ar  
    19     7     8 ar  
    20     7    31 1   
    21     8     9 ar  
    22     8    32 1   
    23     9    10 1   
    24     9    11 ar  
    25    10    33 1   
    26    11    12 ar  
    27    11    34 1   
    28    12    13 1   
    29    13    14 1   
    30    13    35 1   
    31    13    36 1   
    32    14    15 1   
    33    14    37 1   
    34    14    38 1   
    35    15    16 1   
    36    15    39 1   
    37    16    17 1   
    38    16    40 1   
    39    17    18 1   
    40    17    41 1   
    41    17    42 1   
    42    18    19 1   
    43    18    43 1   
    44    18    44 1   
    45    19    20 1   
    46    19    21 1   
    47    20    45 1   
    48    21    22 3   
    49    22    46 1   
@<TRIPOS>SUBSTRUCTURE
     1 3WF         1 TEMP              0 ****  ****    0 ROOT
