@<TRIPOS>MOLECULE
3WG
   24    26     1     0     0
SMALL
No Charge or Current Charge


@<TRIPOS>ATOM
      1 C10         -0.2980    -0.7630     1.0540 c5         1 3WG      -0.078700
      2 C12          0.9500    -1.1040     0.1410 c5         1 3WG       0.162700
      3 C11         -0.3230     0.8060     1.0410 c5         1 3WG      -0.078700
      4 C14          1.9190     0.0530     0.5900 c5         1 3WG       0.291000
      5 C13          0.9140     1.1720     0.1230 c5         1 3WG       0.162700
      6 C15         -1.6620    -1.2010     0.4150 c5         1 3WG       0.123300
      7 C16         -1.6990     1.1910     0.3960 c5         1 3WG       0.123300
      8 C17         -2.5750    -0.0160     0.8440 c5         1 3WG       0.107300
      9 C18          0.6710    -0.6480    -1.2880 c2         1 3WG       0.045800
     10 C19          0.6500     0.6850    -1.2980 c2         1 3WG       0.045800
     11 Cl1          1.5860    -2.7970     0.3280 cl         1 3WG      -0.147000
     12 Cl2          1.4980     2.8860     0.2830 cl         1 3WG      -0.147000
     13 Cl3          2.3830     0.0740     2.3610 cl         1 3WG      -0.162500
     14 Cl4          3.5030     0.0700    -0.3210 cl         1 3WG      -0.162500
     15 Cl5         -2.2340    -2.8350     0.9630 cl         1 3WG      -0.219500
     16 Cl6         -2.3220     2.8150     0.9180 cl         1 3WG      -0.219500
     17 Cl7         -4.2450    -0.0470     0.1230 cl         1 3WG      -0.212000
     18 Cl8          0.4370    -1.6900    -2.6700 cl         1 3WG      -0.083500
     19 Cl9          0.3840     1.6960    -2.6970 cl         1 3WG      -0.083500
     20 H1          -0.1910    -1.1530     2.0750 hc         1 3WG       0.111700
     21 H2          -0.2280     1.2150     2.0560 hc         1 3WG       0.111700
     22 H3          -1.6430    -1.2760    -0.6800 h1         1 3WG       0.102700
     23 H4          -1.6820     1.2490    -0.7000 h1         1 3WG       0.102700
     24 H5          -2.7340    -0.0090     1.9310 h1         1 3WG       0.104700
@<TRIPOS>BOND
     1     1     2 1   
     2     1     3 1   
     3     1     6 1   
     4     1    20 1   
     5     2     4 1   
     6     2     9 1   
     7     2    11 1   
     8     3     5 1   
     9     3     7 1   
    10     3    21 1   
    11     4     5 1   
    12     4    13 1   
    13     4    14 1   
    14     5    10 1   
    15     5    12 1   
    16     6     8 1   
    17     6    15 1   
    18     6    22 1   
    19     7     8 1   
    20     7    16 1   
    21     7    23 1   
    22     8    17 1   
    23     8    24 1   
    24     9    10 2   
    25     9    18 1   
    26    10    19 1   
@<TRIPOS>SUBSTRUCTURE
     1 3WG         1 TEMP              0 ****  ****    0 ROOT
