@<TRIPOS>MOLECULE
3WG
   24    26     1     0     0
SMALL
abcg2


@<TRIPOS>ATOM
      1 C10         -0.2960    -0.7580     0.9760 c5         1 3WG      -0.078700
      2 C12          0.9580    -1.0880     0.1370 c5         1 3WG       0.162700
      3 C11         -0.3210     0.8000     0.9640 c5         1 3WG      -0.078700
      4 C14          1.9110     0.0530     0.5740 c5         1 3WG       0.291000
      5 C13          0.9220     1.1550     0.1180 c5         1 3WG       0.162700
      6 C15         -1.6550    -1.1890     0.4300 c5         1 3WG       0.123300
      7 C16         -1.6930     1.1810     0.4150 c5         1 3WG       0.123300
      8 C17         -2.5470    -0.0150     0.8100 c5         1 3WG       0.107300
      9 C18          0.7000    -0.6480    -1.2890 c2         1 3WG       0.045800
     10 C19          0.6780     0.6820    -1.3010 c2         1 3WG       0.045800
     11 CL1          1.5700    -2.7090     0.3250 cl         1 3WG      -0.147000
     12 CL2          1.4820     2.7980     0.2760 cl         1 3WG      -0.147000
     13 CL3          2.2570     0.0730     2.2980 cl         1 3WG      -0.162500
     14 CL4          3.4390     0.0700    -0.2940 cl         1 3WG      -0.162500
     15 CL5         -2.2240    -2.7260     1.1150 cl         1 3WG      -0.219500
     16 CL6         -2.3090     2.7080     1.0830 cl         1 3WG      -0.219500
     17 CL7         -4.1170    -0.0450    -0.0090 cl         1 3WG      -0.212000
     18 CL8          0.4140    -1.7080    -2.5690 cl         1 3WG      -0.083500
     19 CL9          0.3590     1.7100    -2.5990 cl         1 3WG      -0.083500
     20 H1          -0.1720    -1.1290     1.9930 hc         1 3WG       0.111700
     21 H2          -0.2050     1.1910     1.9740 hc         1 3WG       0.111700
     22 H3          -1.6590    -1.3140    -0.6530 h1         1 3WG       0.102700
     23 H4          -1.7020     1.2930    -0.6700 h1         1 3WG       0.102700
     24 H5          -2.7320    -0.0120     1.8860 h1         1 3WG       0.104700
@<TRIPOS>BOND
     1     1     2 1   
     2     1     3 1   
     3     1     6 1   
     4     1    20 1   
     5     2     4 1   
     6     2     9 1   
     7     2    11 1   
     8     3     5 1   
     9     3     7 1   
    10     3    21 1   
    11     4     5 1   
    12     4    13 1   
    13     4    14 1   
    14     5    10 1   
    15     5    12 1   
    16     6     8 1   
    17     6    15 1   
    18     6    22 1   
    19     7     8 1   
    20     7    16 1   
    21     7    23 1   
    22     8    17 1   
    23     8    24 1   
    24     9    10 2   
    25     9    18 1   
    26    10    19 1   
@<TRIPOS>SUBSTRUCTURE
     1 3WG         1 TEMP              0 ****  ****    0 ROOT
