@<TRIPOS>MOLECULE
3WH
   51    54     1     0     0
SMALL
abcg2


@<TRIPOS>ATOM
      1 C11          5.2510     0.3230    -2.1650 c6         1 3WH       0.094000
      2 C10          3.8700    -0.3260    -2.1600 c6         1 3WH      -0.127900
      3 C13          0.4720     0.4060    -0.8890 ca         1 3WH       0.401900
      4 C01          7.7080    -1.3560     3.1230 c3         1 3WH      -0.109100
      5 C02          7.7450    -1.4610     1.6100 c3         1 3WH       0.105000
      6 N03          6.8180    -0.5150     1.0200 ns         1 3WH      -0.507900
      7 O05          6.9140    -1.4910    -1.0120 o          1 3WH      -0.640100
      8 N06          5.7710     0.4660    -0.8160 n          1 3WH      -0.400800
      9 C07          4.9030     1.2990     0.0020 c6         1 3WH       0.094000
     10 C08          3.5100     0.6900     0.1140 c6         1 3WH      -0.127900
     11 C09          2.9120     0.4700    -1.2780 c6         1 3WH       0.246500
     12 N12          1.6280    -0.1930    -1.2290 nu         1 3WH      -0.914100
     13 N14         -0.5920    -0.3880    -0.7530 nb         1 3WH      -0.268000
     14 C15         -1.7620     0.1420    -0.4140 ca         1 3WH       0.317800
     15 C16         -1.8450     1.5290    -0.1920 ca         1 3WH       0.004000
     16 I17         -3.5250     2.5460     0.5410 i          1 3WH      -0.299000
     17 C18         -0.6880     2.2680    -0.3880 ca         1 3WH       0.179900
     18 N19          0.4660     1.7350    -0.7390 nb         1 3WH      -0.255000
     19 C20         -2.8560    -0.8090    -0.2830 cc         1 3WH      -0.247000
     20 C21         -4.1820    -0.6310    -0.6040 cd         1 3WH      -0.106100
     21 N22         -4.8650    -1.7780    -0.3910 na         1 3WH      -0.211700
     22 C23         -4.0170    -2.7440     0.0790 ca         1 3WH      -0.062200
     23 C24         -2.7280    -2.1790     0.1450 ca         1 3WH      -0.054800
     24 C25         -1.6700    -2.9730     0.6040 ca         1 3WH      -0.049000
     25 C26         -1.9280    -4.2790     0.9750 ca         1 3WH      -0.139000
     26 C27         -3.2210    -4.8190     0.8990 ca         1 3WH      -0.092000
     27 C28         -4.2840    -4.0590     0.4520 ca         1 3WH      -0.126000
     28 H1           5.9450    -0.2500    -2.7730 h1         1 3WH       0.060200
     29 H2           5.1850     1.3220    -2.6050 h1         1 3WH       0.060200
     30 H3           3.4820    -0.3790    -3.1800 hc         1 3WH       0.060700
     31 H4           3.9570    -1.3530    -1.7900 hc         1 3WH       0.060700
     32 H5           7.9900    -0.3580     3.4640 hc         1 3WH       0.040700
     33 H6           6.7150    -1.5800     3.5130 hc         1 3WH       0.040700
     34 H7           8.4110    -2.0630     3.5620 hc         1 3WH       0.040700
     35 H8           8.7660    -1.2930     1.2520 h1         1 3WH       0.051200
     36 H9           7.4650    -2.4680     1.3050 h1         1 3WH       0.051200
     37 H10          6.7280     0.3600     1.5080 hn         1 3WH       0.303500
     38 H11          5.3230     1.4820     0.9890 h1         1 3WH       0.060200
     39 H12          4.8390     2.2820    -0.4740 h1         1 3WH       0.060200
     40 H13          3.5680    -0.2650     0.6470 hc         1 3WH       0.060700
     41 H14          2.8650     1.3510     0.6960 hc         1 3WH       0.060700
     42 H15          2.7600     1.4500    -1.7400 h1         1 3WH       0.077700
     43 H16          1.6150    -1.2020    -1.2290 hn         1 3WH       0.504000
     44 H17         -0.6920     3.3430    -0.2430 h4         1 3WH       0.028100
     45 H18         -4.6890     0.2250    -1.0160 h4         1 3WH       0.224000
     46 H19         -5.8490    -1.8970    -0.5670 hn         1 3WH       0.353000
     47 H20         -0.6660    -2.5770     0.6570 ha         1 3WH       0.127000
     48 H21         -1.1150    -4.9020     1.3270 ha         1 3WH       0.111000
     49 H22         -3.3890    -5.8460     1.1950 ha         1 3WH       0.111000
     50 H23         -5.2850    -4.4680     0.3940 ha         1 3WH       0.113000
     51 C04          6.5200    -0.5670    -0.3060 c          1 3WH       0.635100
@<TRIPOS>BOND
     1     1     2 1   
     2     1     8 1   
     3     1    28 1   
     4     1    29 1   
     5     2    11 1   
     6     2    30 1   
     7     2    31 1   
     8     3    12 1   
     9     3    13 ar  
    10     3    18 ar  
    11     4     5 1   
    12     4    32 1   
    13     4    33 1   
    14     4    34 1   
    15     5     6 1   
    16     5    35 1   
    17     5    36 1   
    18     6    37 1   
    19     6    51 1   
    20     7    51 2   
    21     8     9 1   
    22     8    51 1   
    23     9    10 1   
    24     9    38 1   
    25     9    39 1   
    26    10    11 1   
    27    10    40 1   
    28    10    41 1   
    29    11    12 1   
    30    11    42 1   
    31    12    43 1   
    32    13    14 ar  
    33    14    15 ar  
    34    14    19 1   
    35    15    16 1   
    36    15    17 ar  
    37    17    18 ar  
    38    17    44 1   
    39    19    20 2   
    40    19    23 1   
    41    20    21 1   
    42    20    45 1   
    43    21    22 1   
    44    21    46 1   
    45    22    23 ar  
    46    22    27 ar  
    47    23    24 ar  
    48    24    25 ar  
    49    24    47 1   
    50    25    26 ar  
    51    25    48 1   
    52    26    27 ar  
    53    26    49 1   
    54    27    50 1   
@<TRIPOS>SUBSTRUCTURE
     1 3WH         1 TEMP              0 ****  ****    0 ROOT
