@<TRIPOS>MOLECULE
3WH
   51    54     1     0     0
SMALL
No Charge or Current Charge


@<TRIPOS>ATOM
      1 C11          5.1820    -0.6330    -1.8230 c6         1 3WH       0.094000
      2 C10          3.6950    -1.0490    -1.8680 c6         1 3WH      -0.127900
      3 C13          0.3430     0.0940    -0.5620 ca         1 3WH       0.401900
      4 C01          9.3010     0.3990     2.7030 c3         1 3WH      -0.109100
      5 C02          9.0890    -0.0160     1.2380 c3         1 3WH       0.105000
      6 N03          7.6680    -0.1170     0.9110 ns         1 3WH      -0.507900
      7 O05          7.9280    -0.7030    -1.2610 o          1 3WH      -0.640100
      8 N06          5.7740    -0.5020    -0.4560 n          1 3WH      -0.400800
      9 C07          4.8720     0.0270     0.6200 c6         1 3WH       0.094000
     10 C08          3.3890    -0.3910     0.5090 c6         1 3WH      -0.127900
     11 C09          2.8520    -0.1920    -0.9160 c6         1 3WH       0.246500
     12 N12          1.4480    -0.6250    -0.9920 nu         1 3WH      -0.914100
     13 N14         -0.8190    -0.5700    -0.6170 nb         1 3WH      -0.268000
     14 C15         -1.9290     0.0880    -0.2180 ca         1 3WH       0.317800
     15 C16         -1.8420     1.4200     0.2620 ca         1 3WH       0.004000
     16 I17         -3.5400     2.5460     1.0570 i          1 3WH      -0.299000
     17 C18         -0.5690     2.0170     0.2730 ca         1 3WH       0.179900
     18 N19          0.5290     1.3590    -0.1430 nb         1 3WH      -0.255000
     19 C20         -3.1920    -0.6560    -0.2760 cc         1 3WH      -0.247000
     20 C21         -4.3260    -0.1360    -0.8940 cd         1 3WH      -0.106100
     21 N22         -5.3020    -1.1600    -0.9810 na         1 3WH      -0.211700
     22 C23         -4.7060    -2.3070    -0.4780 ca         1 3WH      -0.062200
     23 C24         -3.4300    -2.0540    -0.0560 ca         1 3WH      -0.054800
     24 C25         -2.6150    -3.0550     0.4940 ca         1 3WH      -0.049000
     25 C26         -3.1500    -4.3570     0.5950 ca         1 3WH      -0.139000
     26 C27         -4.4670    -4.6250     0.1540 ca         1 3WH      -0.092000
     27 C28         -5.2610    -3.5920    -0.3900 ca         1 3WH      -0.126000
     28 H1           5.7600    -1.3650    -2.4050 h1         1 3WH       0.060200
     29 H2           5.2910     0.3350    -2.3330 h1         1 3WH       0.060200
     30 H3           3.3220    -0.9560    -2.8960 hc         1 3WH       0.060700
     31 H4           3.6100    -2.1110    -1.5960 hc         1 3WH       0.060700
     32 H5           8.8450     1.3770     2.8980 hc         1 3WH       0.040700
     33 H6           8.8550    -0.3370     3.3830 hc         1 3WH       0.040700
     34 H7          10.3720     0.4690     2.9260 hc         1 3WH       0.040700
     35 H8           9.5550     0.7250     0.5760 h1         1 3WH       0.051200
     36 H9           9.5660    -0.9890     1.0600 h1         1 3WH       0.051200
     37 H10          6.9910     0.0700     1.6370 hn         1 3WH       0.303500
     38 H11          5.2310    -0.3000     1.6050 h1         1 3WH       0.060200
     39 H12          4.9300     1.1250     0.6010 h1         1 3WH       0.060200
     40 H13          3.2880    -1.4450     0.8010 hc         1 3WH       0.060700
     41 H14          2.7950     0.1890     1.2270 hc         1 3WH       0.060700
     42 H15          2.9530     0.8650    -1.2120 h1         1 3WH       0.077700
     43 H16          1.2490    -1.5770    -1.2990 hn         1 3WH       0.504000
     44 H17         -0.4240     3.0330     0.6340 h4         1 3WH       0.028100
     45 H18         -4.5030     0.8560    -1.3030 h4         1 3WH       0.224000
     46 H19         -6.2320    -1.0820    -1.3820 hn         1 3WH       0.353000
     47 H20         -1.6070    -2.8370     0.8370 ha         1 3WH       0.127000
     48 H21         -2.5460    -5.1580     1.0160 ha         1 3WH       0.111000
     49 H22         -4.8710    -5.6320     0.2360 ha         1 3WH       0.111000
     50 H23         -6.2750    -3.7900    -0.7310 ha         1 3WH       0.113000
     51 C04          7.1790    -0.4560    -0.3280 c          1 3WH       0.635100
@<TRIPOS>BOND
     1     1     2 1   
     2     1     8 1   
     3     1    28 1   
     4     1    29 1   
     5     2    11 1   
     6     2    30 1   
     7     2    31 1   
     8     3    12 1   
     9     3    13 ar  
    10     3    18 ar  
    11     4     5 1   
    12     4    32 1   
    13     4    33 1   
    14     4    34 1   
    15     5     6 1   
    16     5    35 1   
    17     5    36 1   
    18     6    37 1   
    19     6    51 1   
    20     7    51 2   
    21     8     9 1   
    22     8    51 1   
    23     9    10 1   
    24     9    38 1   
    25     9    39 1   
    26    10    11 1   
    27    10    40 1   
    28    10    41 1   
    29    11    12 1   
    30    11    42 1   
    31    12    43 1   
    32    13    14 ar  
    33    14    15 ar  
    34    14    19 1   
    35    15    16 1   
    36    15    17 ar  
    37    17    18 ar  
    38    17    44 1   
    39    19    20 2   
    40    19    23 1   
    41    20    21 1   
    42    20    45 1   
    43    21    22 1   
    44    21    46 1   
    45    22    23 ar  
    46    22    27 ar  
    47    23    24 ar  
    48    24    25 ar  
    49    24    47 1   
    50    25    26 ar  
    51    25    48 1   
    52    26    27 ar  
    53    26    49 1   
    54    27    50 1   
@<TRIPOS>SUBSTRUCTURE
     1 3WH         1 TEMP              0 ****  ****    0 ROOT
