@<TRIPOS>MOLECULE
3WJ
   30    32     1     0     0
SMALL
No Charge or Current Charge


@<TRIPOS>ATOM
      1 C2          -0.8110     0.3140    -0.0750 ca         1 3WJ       0.400900
      2 C3           1.5430    -0.4150    -0.0020 ca         1 3WJ       0.207000
      3 N6          -0.4590     1.6050    -0.2620 nb         1 3WJ      -0.274000
      4 C7           2.1860     0.0160     1.1740 ca         1 3WJ      -0.045000
      5 C8           2.2920    -0.5720    -1.1830 ca         1 3WJ      -0.045000
      6 C9          -1.4470    -2.3230     0.4670 cc         1 3WJ      -0.373200
      7 C10         -2.5540    -1.4260     0.2030 c          1 3WJ       0.615900
      8 C11         -3.1040     1.0220    -0.1150 ca         1 3WJ       0.444900
      9 C12         -1.4320     2.5250    -0.3660 ca         1 3WJ       0.215900
     10 C13          3.5680     0.2850     1.1670 ca         1 3WJ      -0.179500
     11 C14          3.6740    -0.3020    -1.1860 ca         1 3WJ      -0.179500
     12 N1           0.1740    -0.6820    -0.0020 na         1 3WJ      -0.630900
     13 C4          -0.1140    -1.9930     0.4200 cd         1 3WJ       0.071000
     14 C5          -2.1720    -0.0160    -0.0010 ca         1 3WJ      -0.386600
     15 O15         -3.7110    -1.8270     0.1780 o          1 3WJ      -0.614100
     16 N16         -2.7510     2.2930    -0.3020 nb         1 3WJ      -0.310000
     17 N17         -4.4360     0.8290    -0.0330 nv         1 3WJ      -1.053900
     18 C18          4.3100     0.1270    -0.0120 ca         1 3WJ       0.311000
     19 N19          5.6500     0.3890    -0.0170 nv         1 3WJ      -1.077000
     20 H1           1.6120     0.1410     2.0880 ha         1 3WJ       0.123500
     21 H2           1.8000    -0.9030    -2.0940 ha         1 3WJ       0.123500
     22 H3          -1.7480    -3.3360     0.7020 ha         1 3WJ       0.212000
     23 H4          -1.1200     3.5570    -0.5170 h5         1 3WJ       0.045100
     24 H5           4.0550     0.6170     2.0800 ha         1 3WJ       0.118000
     25 H6           4.2440    -0.4270    -2.1030 ha         1 3WJ       0.118000
     26 H7           0.7040    -2.6880     0.6180 h4         1 3WJ       0.207000
     27 H8          -4.7460    -0.1430    -0.0600 hn         1 3WJ       0.521000
     28 H9          -5.0550     1.5230    -0.4430 hn         1 3WJ       0.521000
     29 H10          6.0810     0.8400     0.7880 hn         1 3WJ       0.456000
     30 H11          6.1590     0.4200    -0.8990 hn         1 3WJ       0.456000
@<TRIPOS>BOND
     1     1     3 ar  
     2     1    12 1   
     3     1    14 ar  
     4     2     4 ar  
     5     2     5 ar  
     6     2    12 1   
     7     3     9 ar  
     8     4    10 ar  
     9     4    20 1   
    10     5    11 ar  
    11     5    21 1   
    12     6     7 1   
    13     6    13 2   
    14     6    22 1   
    15     7    14 1   
    16     7    15 2   
    17     8    14 ar  
    18     8    16 ar  
    19     8    17 1   
    20     9    16 ar  
    21     9    23 1   
    22    10    18 ar  
    23    10    24 1   
    24    11    18 ar  
    25    11    25 1   
    26    12    13 1   
    27    13    26 1   
    28    17    27 1   
    29    17    28 1   
    30    18    19 1   
    31    19    29 1   
    32    19    30 1   
@<TRIPOS>SUBSTRUCTURE
     1 3WJ         1 TEMP              0 ****  ****    0 ROOT
