@<TRIPOS>MOLECULE
3WJ
   30    32     1     0     0
SMALL
bcc


@<TRIPOS>ATOM
      1 C2          -0.7920     0.2550    -0.0400 ca         1 3WJ       0.729200
      2 C3           1.5490    -0.4030     0.0860 ca         1 3WJ       0.068600
      3 N6          -0.3480     1.4940    -0.2590 nb         1 3WJ      -0.800000
      4 C7           2.2120     0.0110     1.2320 ca         1 3WJ      -0.063000
      5 C8           2.2460    -0.5310    -1.1050 ca         1 3WJ      -0.063000
      6 C9          -1.5200    -2.3930     0.4190 cc         1 3WJ      -0.323200
      7 C10         -2.5910    -1.4460     0.2490 c          1 3WJ       0.615900
      8 C11         -3.0500     1.0100    -0.1940 ca         1 3WJ       0.773200
      9 C12         -1.2810     2.4080    -0.4310 ca         1 3WJ       0.741900
     10 C13          3.5650     0.2920     1.1900 ca         1 3WJ      -0.197500
     11 C14          3.6000    -0.2520    -1.1530 ca         1 3WJ      -0.197500
     12 N1           0.1540    -0.7190     0.1380 na         1 3WJ      -0.492500
     13 C4          -0.2280    -2.0060     0.3590 cd         1 3WJ       0.121000
     14 C5          -2.1500    -0.0810     0.0100 ca         1 3WJ      -0.517200
     15 O15         -3.7840    -1.7740     0.3010 o          1 3WJ      -0.614100
     16 N16         -2.5910     2.2480    -0.4140 nb         1 3WJ      -0.836000
     17 N17         -4.3650     0.8390    -0.1740 nv         1 3WJ      -0.943500
     18 C18          4.2870     0.1660    -0.0050 ca         1 3WJ       0.172600
     19 N19          5.6400     0.3960    -0.0370 nv         1 3WJ      -0.828200
     20 H1           1.6690     0.1160     2.1630 ha         1 3WJ       0.141500
     21 H2           1.7320    -0.8490    -2.0030 ha         1 3WJ       0.141500
     22 H3          -1.7520    -3.4340     0.5980 ha         1 3WJ       0.162000
     23 H4          -0.9290     3.4190    -0.6090 h5         1 3WJ       0.045100
     24 H5           4.0710     0.6130     2.0920 ha         1 3WJ       0.136000
     25 H6           4.1350    -0.3570    -2.0890 ha         1 3WJ       0.136000
     26 H7           0.5820    -2.7090     0.4850 h4         1 3WJ       0.157000
     27 H8          -4.7460    -0.0810    -0.0130 hn         1 3WJ       0.465800
     28 H9          -4.9700     1.6260    -0.3350 hn         1 3WJ       0.465800
     29 H10          6.0090     0.9880     0.6890 hn         1 3WJ       0.400800
     30 H11          6.0370     0.6040    -0.9390 hn         1 3WJ       0.400800
@<TRIPOS>BOND
     1     1     3 ar  
     2     1    12 1   
     3     1    14 ar  
     4     2     4 ar  
     5     2     5 ar  
     6     2    12 1   
     7     3     9 ar  
     8     4    10 ar  
     9     4    20 1   
    10     5    11 ar  
    11     5    21 1   
    12     6     7 1   
    13     6    13 2   
    14     6    22 1   
    15     7    14 1   
    16     7    15 2   
    17     8    14 ar  
    18     8    16 ar  
    19     8    17 1   
    20     9    16 ar  
    21     9    23 1   
    22    10    18 ar  
    23    10    24 1   
    24    11    18 ar  
    25    11    25 1   
    26    12    13 1   
    27    13    26 1   
    28    17    27 1   
    29    17    28 1   
    30    18    19 1   
    31    19    29 1   
    32    19    30 1   
@<TRIPOS>SUBSTRUCTURE
     1 3WJ         1 TEMP              0 ****  ****    0 ROOT
