@<TRIPOS>MOLECULE
3WK
   30    32     1     0     0
SMALL
abcg2


@<TRIPOS>ATOM
      1 C1           3.8530     1.6210    -0.0490 c6         1 3WK      -0.296700
      2 C2           4.6630     0.3930     0.1240 c2         1 3WK       0.476200
      3 C8           1.1660    -2.4870     0.3680 ca         1 3WK       0.197900
      4 C10          0.5350    -0.3270     0.1130 ca         1 3WK       0.438900
      5 C13         -1.8230     0.3580    -0.0300 ca         1 3WK       0.232000
      6 C14         -2.4180    -0.6240    -0.8160 ca         1 3WK      -0.069500
      7 C15         -3.7930    -0.7730    -0.8310 ca         1 3WK      -0.167500
      8 C16         -4.6230     0.0660    -0.0760 ca         1 3WK       0.289000
      9 N3           4.2190    -0.7910     0.2570 ne         1 3WK      -0.628700
     10 C4           2.3650     1.4210    -0.0200 c          1 3WK       0.621700
     11 C5           1.9110     0.0510     0.1090 ca         1 3WK      -0.404600
     12 C6           2.8400    -0.9900     0.2430 ca         1 3WK       0.371000
     13 N7           2.4730    -2.2580     0.3720 nb         1 3WK      -0.201000
     14 N9           0.1920    -1.6140     0.2480 nb         1 3WK      -0.265000
     15 O11          1.6090     2.3790    -0.1080 o          1 3WK      -0.567100
     16 N12         -0.4300     0.5860    -0.0140 nu         1 3WK      -0.915900
     17 C17         -4.0150     1.0600     0.6990 ca         1 3WK      -0.167500
     18 C18         -2.6390     1.1960     0.7230 ca         1 3WK      -0.069500
     19 N19         -5.9950    -0.0430    -0.1430 nv         1 3WK      -1.072000
     20 H1           4.1440     2.3530     0.7130 hc         1 3WK       0.101700
     21 H2           4.1360     2.0880    -1.0000 hc         1 3WK       0.101700
     22 H3           5.7420     0.5230     0.1350 h4         1 3WK       0.033800
     23 H4           0.8650    -3.5230     0.4810 h5         1 3WK       0.051100
     24 H5          -1.8110    -1.2780    -1.4250 ha         1 3WK       0.123000
     25 H6          -4.2340    -1.5480    -1.4470 ha         1 3WK       0.115000
     26 H7          -0.1110     1.5480    -0.0460 hn         1 3WK       0.538000
     27 H8          -4.6280     1.7280     1.2930 ha         1 3WK       0.115000
     28 H9          -2.1920     1.9680     1.3390 ha         1 3WK       0.123000
     29 H10         -6.3510    -0.9380    -0.4360 hn         1 3WK       0.449500
     30 H11         -6.5030     0.3200     0.6470 hn         1 3WK       0.449500
@<TRIPOS>BOND
     1     1     2 1   
     2     1    10 1   
     3     1    20 1   
     4     1    21 1   
     5     2     9 2   
     6     2    22 1   
     7     3    13 ar  
     8     3    14 ar  
     9     3    23 1   
    10     4    11 ar  
    11     4    14 ar  
    12     4    16 1   
    13     5     6 ar  
    14     5    16 1   
    15     5    18 ar  
    16     6     7 ar  
    17     6    24 1   
    18     7     8 ar  
    19     7    25 1   
    20     8    17 ar  
    21     8    19 1   
    22     9    12 1   
    23    10    11 1   
    24    10    15 2   
    25    11    12 ar  
    26    12    13 ar  
    27    16    26 1   
    28    17    18 ar  
    29    17    27 1   
    30    18    28 1   
    31    19    29 1   
    32    19    30 1   
@<TRIPOS>SUBSTRUCTURE
     1 3WK         1 TEMP              0 ****  ****    0 ROOT
