@<TRIPOS>MOLECULE
3WK
   30    32     1     0     0
SMALL
No Charge or Current Charge


@<TRIPOS>ATOM
      1 C1           3.6320     1.6700    -0.3740 c6         1 3WK      -0.296700
      2 C2           4.6330     0.6670     0.1210 c2         1 3WK       0.476200
      3 C8           1.4030    -2.6770     0.1820 ca         1 3WK       0.197900
      4 C10          0.6290    -0.5260     0.2420 ca         1 3WK       0.438900
      5 C13         -1.8150     0.2780     0.1480 ca         1 3WK       0.232000
      6 C14         -2.4170    -0.7190    -0.6490 ca         1 3WK      -0.069500
      7 C15         -3.8160    -0.7660    -0.7990 ca         1 3WK      -0.167500
      8 C16         -4.6270     0.1830    -0.1610 ca         1 3WK       0.289000
      9 N3           4.3110    -0.5770     0.3340 ne         1 3WK      -0.628700
     10 C4           2.3200     1.3600     0.2980 c          1 3WK       0.621700
     11 C5           1.9460    -0.0670     0.2530 ca         1 3WK      -0.404600
     12 C6           2.9760    -1.0150     0.2450 ca         1 3WK       0.371000
     13 N7           2.7050    -2.3310     0.2050 nb         1 3WK      -0.201000
     14 N9           0.3490    -1.8380     0.2080 nb         1 3WK      -0.265000
     15 O11          1.7200     2.1730     0.9890 o          1 3WK      -0.567100
     16 N12         -0.4260     0.3710     0.3130 nu         1 3WK      -0.915900
     17 C17         -4.0380     1.1860     0.6200 ca         1 3WK      -0.167500
     18 C18         -2.6380     1.2360     0.7710 ca         1 3WK      -0.069500
     19 N19         -5.9850     0.1360    -0.3080 nv         1 3WK      -1.072000
     20 H1           3.9440     2.7040    -0.1920 hc         1 3WK       0.101700
     21 H2           3.5210     1.4650    -1.4460 hc         1 3WK       0.101700
     22 H3           5.6700     0.9780     0.2200 h4         1 3WK       0.033800
     23 H4           1.1810    -3.7420     0.1510 h5         1 3WK       0.051100
     24 H5          -1.8080    -1.4500    -1.1710 ha         1 3WK       0.123000
     25 H6          -4.2640    -1.5400    -1.4160 ha         1 3WK       0.115000
     26 H7          -0.1040     1.2840     0.6500 hn         1 3WK       0.538000
     27 H8          -4.6580     1.9300     1.1130 ha         1 3WK       0.115000
     28 H9          -2.1950     2.0200     1.3800 ha         1 3WK       0.123000
     29 H10         -6.4200    -0.6660    -0.7620 hn         1 3WK       0.449500
     30 H11         -6.5810     0.7380     0.2580 hn         1 3WK       0.449500
@<TRIPOS>BOND
     1     1     2 1   
     2     1    10 1   
     3     1    20 1   
     4     1    21 1   
     5     2     9 2   
     6     2    22 1   
     7     3    13 ar  
     8     3    14 ar  
     9     3    23 1   
    10     4    11 ar  
    11     4    14 ar  
    12     4    16 1   
    13     5     6 ar  
    14     5    16 1   
    15     5    18 ar  
    16     6     7 ar  
    17     6    24 1   
    18     7     8 ar  
    19     7    25 1   
    20     8    17 ar  
    21     8    19 1   
    22     9    12 1   
    23    10    11 1   
    24    10    15 2   
    25    11    12 ar  
    26    12    13 ar  
    27    16    26 1   
    28    17    18 ar  
    29    17    27 1   
    30    18    28 1   
    31    19    29 1   
    32    19    30 1   
@<TRIPOS>SUBSTRUCTURE
     1 3WK         1 TEMP              0 ****  ****    0 ROOT
