@<TRIPOS>MOLECULE
3WL
   30    32     1     0     0
SMALL
No Charge or Current Charge


@<TRIPOS>ATOM
      1 C4          -3.4510     1.2930     0.5820 ca         1 3WL      -0.071000
      2 C5          -4.8350     1.5300     0.4960 ca         1 3WL      -0.117000
      3 C6          -1.4470    -0.1290     0.1570 cc         1 3WL       0.215900
      4 C7          -0.9590    -1.3970     0.3800 cd         1 3WL      -0.389200
      5 C8           0.4520    -1.6930     0.4510 c          1 3WL       0.609900
      6 C10          2.7430    -0.6800     0.1160 ca         1 3WL       0.166100
      7 C13          1.5690     1.8490    -0.1590 ca         1 3WL      -0.192000
      8 O            0.8740    -2.8220     0.6670 o          1 3WL      -0.578100
      9 C9           1.3420    -0.5410     0.2090 ca         1 3WL      -0.298600
     10 C14          0.7520     0.7290     0.0650 ca         1 3WL       0.193100
     11 C12          2.9580     1.7100    -0.2560 ca         1 3WL       0.207100
     12 O2           3.7430     2.7990    -0.4780 oh         1 3WL      -0.521100
     13 C11          3.5550     0.4460    -0.1200 ca         1 3WL      -0.022900
     14 O3           4.9200     0.3050    -0.2120 oh         1 3WL      -0.556100
     15 O4           3.3320    -1.9030     0.2540 oh         1 3WL      -0.554100
     16 O1          -0.6090     0.9740     0.1820 os         1 3WL      -0.212200
     17 C3          -2.8920     0.1040     0.0660 ca         1 3WL      -0.076800
     18 C2          -3.7460    -0.8380    -0.5500 ca         1 3WL      -0.071000
     19 C1          -5.1290    -0.5990    -0.6360 ca         1 3WL      -0.117000
     20 C           -5.6750     0.5830    -0.1120 ca         1 3WL      -0.086000
     21 H1          -2.8150     2.0360     1.0590 ha         1 3WL       0.125000
     22 H2          -5.2550     2.4480     0.9010 ha         1 3WL       0.119500
     23 H3          -1.6040    -2.2580     0.4950 ha         1 3WL       0.216000
     24 H4           1.1190     2.8330    -0.2570 ha         1 3WL       0.153000
     25 H5           4.6650     2.4560    -0.5040 ho         1 3WL       0.495000
     26 H6           5.1190    -0.6530    -0.0860 ho         1 3WL       0.494000
     27 H7           2.5980    -2.5440     0.4390 ho         1 3WL       0.506000
     28 H8          -3.3420    -1.7530    -0.9770 ha         1 3WL       0.125000
     29 H9          -5.7780    -1.3310    -1.1140 ha         1 3WL       0.119500
     30 H10         -6.7450     0.7670    -0.1790 ha         1 3WL       0.118000
@<TRIPOS>BOND
     1     1     2 ar  
     2     1    17 ar  
     3     1    21 1   
     4     2    20 ar  
     5     2    22 1   
     6     3     4 2   
     7     3    16 1   
     8     3    17 1   
     9     4     5 1   
    10     4    23 1   
    11     5     8 2   
    12     5     9 1   
    13     6     9 ar  
    14     6    13 ar  
    15     6    15 1   
    16     7    10 ar  
    17     7    11 ar  
    18     7    24 1   
    19     9    10 ar  
    20    10    16 1   
    21    11    12 1   
    22    11    13 ar  
    23    12    25 1   
    24    13    14 1   
    25    14    26 1   
    26    15    27 1   
    27    17    18 ar  
    28    18    19 ar  
    29    18    28 1   
    30    19    20 ar  
    31    19    29 1   
    32    20    30 1   
@<TRIPOS>SUBSTRUCTURE
     1 3WL         1 TEMP              0 ****  ****    0 ROOT
