@<TRIPOS>MOLECULE
3WL
   30    32     1     0     0
SMALL
abcg2


@<TRIPOS>ATOM
      1 C4          -3.2830     1.3590     0.3020 ca         1 3WL      -0.071000
      2 C5          -4.6290     1.6870     0.2750 ca         1 3WL      -0.117000
      3 C6          -1.4480    -0.3090     0.0630 cc         1 3WL       0.215900
      4 C7          -0.9580    -1.5630     0.1740 cd         1 3WL      -0.389200
      5 C8           0.4620    -1.8250     0.2100 c          1 3WL       0.609900
      6 C10          2.7070    -0.7010     0.0180 ca         1 3WL       0.166100
      7 C13          1.4370     1.7890    -0.0780 ca         1 3WL      -0.192000
      8 O            0.9200    -2.9550     0.3840 o          1 3WL      -0.578100
      9 C9           1.2990    -0.6420     0.0580 ca         1 3WL      -0.298600
     10 C14          0.7020     0.6170    -0.0080 ca         1 3WL       0.193100
     11 C12          2.8190     1.7070    -0.0900 ca         1 3WL       0.207100
     12 O2           3.5270     2.8380    -0.1590 oh         1 3WL      -0.521100
     13 C11          3.4590     0.4570    -0.0360 ca         1 3WL      -0.022900
     14 O3           4.8090     0.4620    -0.0660 oh         1 3WL      -0.556100
     15 O4           3.3890    -1.8630    -0.0420 oh         1 3WL      -0.554100
     16 O1          -0.6430     0.7550    -0.0070 os         1 3WL      -0.212200
     17 C3          -2.8710     0.0530     0.0260 ca         1 3WL      -0.076800
     18 C2          -3.8340    -0.9090    -0.2860 ca         1 3WL      -0.071000
     19 C1          -5.1780    -0.5760    -0.3110 ca         1 3WL      -0.117000
     20 C           -5.5800     0.7240    -0.0300 ca         1 3WL      -0.086000
     21 H1          -2.5620     2.1260     0.5500 ha         1 3WL       0.125000
     22 H2          -4.9350     2.7010     0.4960 ha         1 3WL       0.119500
     23 H3          -1.6330    -2.4000     0.2700 ha         1 3WL       0.216000
     24 H4           0.9440     2.7510    -0.1230 ha         1 3WL       0.153000
     25 H5           4.4750     2.6590    -0.1030 ho         1 3WL       0.495000
     26 H6           5.1490    -0.4410    -0.0250 ho         1 3WL       0.494000
     27 H7           2.9960    -2.5120     0.5580 ho         1 3WL       0.506000
     28 H8          -3.5400    -1.9210    -0.5310 ha         1 3WL       0.125000
     29 H9          -5.9110    -1.3310    -0.5590 ha         1 3WL       0.119500
     30 H10         -6.6310     0.9830    -0.0510 ha         1 3WL       0.118000
@<TRIPOS>BOND
     1     1     2 ar  
     2     1    17 ar  
     3     1    21 1   
     4     2    20 ar  
     5     2    22 1   
     6     3     4 2   
     7     3    16 1   
     8     3    17 1   
     9     4     5 1   
    10     4    23 1   
    11     5     8 2   
    12     5     9 1   
    13     6     9 ar  
    14     6    13 ar  
    15     6    15 1   
    16     7    10 ar  
    17     7    11 ar  
    18     7    24 1   
    19     9    10 ar  
    20    10    16 1   
    21    11    12 1   
    22    11    13 ar  
    23    12    25 1   
    24    13    14 1   
    25    14    26 1   
    26    15    27 1   
    27    17    18 ar  
    28    18    19 ar  
    29    18    28 1   
    30    19    20 ar  
    31    19    29 1   
    32    20    30 1   
@<TRIPOS>SUBSTRUCTURE
     1 3WL         1 TEMP              0 ****  ****    0 ROOT
