@<TRIPOS>MOLECULE
3WM
  120   119     1     0     0
SMALL
bcc


@<TRIPOS>ATOM
      1 CBF        -13.4130     9.5070    -2.8440 c3         1 3WM      -0.088100
      2 CBE        -12.9630     8.0530    -2.8830 c3         1 3WM      -0.074400
      3 CBD        -12.5300     7.5320    -1.5180 c3         1 3WM      -0.075400
      4 CBC        -12.0630     6.0820    -1.5410 c3         1 3WM      -0.074400
      5 CBB        -11.6370     5.5700    -0.1710 c3         1 3WM      -0.074400
      6 CBA        -11.1600     4.1230    -0.1830 c3         1 3WM      -0.073400
      7 CAZ        -10.7410     3.6240     1.1940 c3         1 3WM      -0.075400
      8 CAY        -10.2520     2.1810     1.1980 c3         1 3WM      -0.071400
      9 CAX         -9.8380     1.7090     2.5910 c3         1 3WM      -0.041200
     10 CAW         -9.3890     0.2820     2.6190 c2         1 3WM      -0.167200
     11 CAV         -8.1680    -0.1250     2.9580 c2         1 3WM      -0.169200
     12 CAU         -7.6980    -1.5440     2.9820 c3         1 3WM      -0.040200
     13 CAT         -6.5270    -1.7900     2.0280 c3         1 3WM      -0.072400
     14 CAS         -5.9620    -3.2000     2.1340 c3         1 3WM      -0.075400
     15 CAR         -4.8000    -3.4490     1.1820 c3         1 3WM      -0.075400
     16 CAQ         -4.2030    -4.8440     1.3170 c3         1 3WM      -0.071400
     17 CAP         -3.0570    -5.0780     0.3410 c3         1 3WM      -0.105400
     18 CAO         -2.3720    -6.4230     0.5190 c3         1 3WM       0.332900
     19 OAD         -3.2540    -7.5040     0.4110 oh         1 3WM      -0.621800
     20 OAN         -1.3460    -6.4880    -0.4280 os         1 3WM      -0.415600
     21 CAM         -0.4250    -7.5520    -0.2730 c3         1 3WM       0.157100
     22 CAL         -0.4360    -8.4340    -1.5080 c3         1 3WM       0.137400
     23 OAK         -0.1280    -7.6990    -2.6650 oh         1 3WM      -0.565800
     24 CBI          0.9340    -7.0120     0.1330 c3         1 3WM       0.137400
     25 OBJ          1.4160    -6.0830    -0.8060 os         1 3WM      -0.404600
     26 CBK          2.6050    -5.4540    -0.4300 c3         1 3WM       0.332900
     27 OCC          3.6850    -6.3450    -0.3970 oh         1 3WM      -0.621800
     28 CBL          2.8300    -4.2890    -1.3810 c3         1 3WM      -0.104400
     29 CBM          4.0950    -3.5020    -1.0660 c3         1 3WM      -0.072400
     30 CBN          4.2760    -2.2880    -1.9690 c3         1 3WM      -0.074400
     31 CBO          5.5760    -1.5420    -1.6980 c3         1 3WM      -0.075400
     32 CBP          5.7410    -0.2910    -2.5500 c3         1 3WM      -0.073400
     33 CBQ          7.0950     0.3910    -2.3500 c3         1 3WM      -0.043200
     34 CBR          7.2160     1.6450    -3.1580 c2         1 3WM      -0.165200
     35 CBS          7.5390     2.8660    -2.7320 c2         1 3WM      -0.166200
     36 CBT          7.9280     3.2830    -1.3480 c3         1 3WM      -0.042200
     37 CBU          9.3870     3.7410    -1.2880 c3         1 3WM      -0.073400
     38 CBV          9.8240     4.1870     0.1010 c3         1 3WM      -0.074400
     39 CBW         11.2730     4.6570     0.1410 c3         1 3WM      -0.074400
     40 CBX         11.7390     5.0810     1.5270 c3         1 3WM      -0.073400
     41 CBY         13.1870     5.5550     1.5500 c3         1 3WM      -0.075400
     42 CBZ         13.6660     5.9780     2.9330 c3         1 3WM      -0.075400
     43 CCA         15.1150     6.4490     2.9500 c3         1 3WM      -0.075400
     44 CCB         15.5830     6.8760     4.3340 c3         1 3WM      -0.088100
     45 H1         -13.7240     9.8590    -3.8280 hc         1 3WM       0.031367
     46 H2         -14.2550     9.6410    -2.1630 hc         1 3WM       0.031367
     47 H3         -12.6070    10.1580    -2.5000 hc         1 3WM       0.031367
     48 H4         -13.7720     7.4260    -3.2690 hc         1 3WM       0.036700
     49 H5         -12.1340     7.9450    -3.5900 hc         1 3WM       0.036700
     50 H6         -11.7250     8.1650    -1.1280 hc         1 3WM       0.036700
     51 H7         -13.3620     7.6350    -0.8130 hc         1 3WM       0.036700
     52 H8         -12.8660     5.4470    -1.9330 hc         1 3WM       0.036700
     53 H9         -11.2280     5.9800    -2.2420 hc         1 3WM       0.036700
     54 H10        -10.8400     6.2100     0.2230 hc         1 3WM       0.036700
     55 H11        -12.4750     5.6680     0.5280 hc         1 3WM       0.036700
     56 H12        -11.9550     3.4800    -0.5770 hc         1 3WM       0.037700
     57 H13        -10.3190     4.0230    -0.8780 hc         1 3WM       0.037700
     58 H14         -9.9510     4.2740     1.5880 hc         1 3WM       0.036700
     59 H15        -11.5840     3.7210     1.8860 hc         1 3WM       0.036700
     60 H16        -11.0410     1.5270     0.8080 hc         1 3WM       0.040200
     61 H17         -9.4040     2.0770     0.5140 hc         1 3WM       0.040200
     62 H18         -9.0420     2.3550     2.9740 hc         1 3WM       0.042700
     63 H19        -10.6910     1.8340     3.2680 hc         1 3WM       0.042700
     64 H20        -10.1310    -0.4610     2.3310 ha         1 3WM       0.115000
     65 H21         -7.4280     0.6240     3.2380 ha         1 3WM       0.115000
     66 H22         -7.3760    -1.8000     3.9980 hc         1 3WM       0.043200
     67 H23         -8.5230    -2.2200     2.7390 hc         1 3WM       0.043200
     68 H24         -6.8510    -1.5970     1.0010 hc         1 3WM       0.040200
     69 H25         -5.7330    -1.0650     2.2380 hc         1 3WM       0.040200
     70 H26         -5.6340    -3.3800     3.1640 hc         1 3WM       0.038200
     71 H27         -6.7560    -3.9290     1.9380 hc         1 3WM       0.038200
     72 H28         -5.1350    -3.2950     0.1500 hc         1 3WM       0.039200
     73 H29         -4.0190    -2.7010     1.3600 hc         1 3WM       0.039200
     74 H30         -3.8470    -4.9860     2.3440 hc         1 3WM       0.043200
     75 H31         -4.9870    -5.5900     1.1600 hc         1 3WM       0.043200
     76 H32         -3.4240    -4.9950    -0.6890 hc         1 3WM       0.058700
     77 H33         -2.3060    -4.2930     0.4670 hc         1 3WM       0.058700
     78 H34         -1.9620    -6.5000     1.5360 h2         1 3WM       0.057700
     79 H35         -3.7480    -7.4230    -0.4130 ho         1 3WM       0.411000
     80 H36         -0.7210    -8.2160     0.5510 h1         1 3WM       0.049700
     81 H37          0.2770    -9.2530    -1.3390 h1         1 3WM       0.018700
     82 H38         -1.4310    -8.8940    -1.5780 h1         1 3WM       0.018700
     83 H39         -0.2750    -8.2740    -3.4210 ho         1 3WM       0.394000
     84 H40          0.8390    -6.5380     1.1220 h1         1 3WM       0.027700
     85 H41          1.6180    -7.8600     0.2550 h1         1 3WM       0.027700
     86 H42          2.5230    -5.0810     0.6020 h2         1 3WM       0.055700
     87 H43          3.9110    -6.5930    -1.3020 ho         1 3WM       0.410000
     88 H44          2.8700    -4.6670    -2.4090 hc         1 3WM       0.059200
     89 H45          1.9620    -3.6270    -1.3250 hc         1 3WM       0.059200
     90 H46          4.0720    -3.1710    -0.0220 hc         1 3WM       0.042700
     91 H47          4.9700    -4.1510    -1.1600 hc         1 3WM       0.042700
     92 H48          4.2540    -2.6060    -3.0170 hc         1 3WM       0.039200
     93 H49          3.4270    -1.6070    -1.8400 hc         1 3WM       0.039200
     94 H50          5.6250    -1.2640    -0.6390 hc         1 3WM       0.037700
     95 H51          6.4210    -2.2170    -1.8710 hc         1 3WM       0.037700
     96 H52          5.6220    -0.5480    -3.6080 hc         1 3WM       0.039700
     97 H53          4.9400     0.4180    -2.3180 hc         1 3WM       0.039700
     98 H54          7.2550     0.5870    -1.2870 hc         1 3WM       0.044700
     99 H55          7.8830    -0.3100    -2.6510 hc         1 3WM       0.044700
    100 H56          6.9970     1.5280    -4.2170 ha         1 3WM       0.114000
    101 H57          7.5670     3.6610    -3.4720 ha         1 3WM       0.114000
    102 H58          7.2870     4.1100    -1.0230 hc         1 3WM       0.044200
    103 H59          7.7710     2.4740    -0.6310 hc         1 3WM       0.044200
    104 H60         10.0310     2.9240    -1.6280 hc         1 3WM       0.039200
    105 H61          9.5360     4.5610    -1.9980 hc         1 3WM       0.039200
    106 H62          9.1690     4.9930     0.4510 hc         1 3WM       0.037200
    107 H63          9.6890     3.3600     0.8070 hc         1 3WM       0.037200
    108 H64         11.9230     3.8560    -0.2300 hc         1 3WM       0.037200
    109 H65         11.3990     5.4930    -0.5560 hc         1 3WM       0.037200
    110 H66         11.0890     5.8800     1.9020 hc         1 3WM       0.037200
    111 H67         11.6200     4.2430     2.2230 hc         1 3WM       0.037200
    112 H68         13.8350     4.7570     1.1700 hc         1 3WM       0.036700
    113 H69         13.3040     6.3940     0.8550 hc         1 3WM       0.036700
    114 H70         13.0200     6.7780     3.3130 hc         1 3WM       0.036700
    115 H71         13.5500     5.1410     3.6300 hc         1 3WM       0.036700
    116 H72         15.7590     5.6470     2.5750 hc         1 3WM       0.036700
    117 H73         15.2330     7.2820     2.2500 hc         1 3WM       0.036700
    118 H74         16.6220     7.2080     4.3240 hc         1 3WM       0.031367
    119 H75         14.9760     7.6990     4.7170 hc         1 3WM       0.031367
    120 H76         15.5050     6.0540     5.0480 hc         1 3WM       0.031367
@<TRIPOS>BOND
     1     1     2 1   
     2     1    45 1   
     3     1    46 1   
     4     1    47 1   
     5     2     3 1   
     6     2    48 1   
     7     2    49 1   
     8     3     4 1   
     9     3    50 1   
    10     3    51 1   
    11     4     5 1   
    12     4    52 1   
    13     4    53 1   
    14     5     6 1   
    15     5    54 1   
    16     5    55 1   
    17     6     7 1   
    18     6    56 1   
    19     6    57 1   
    20     7     8 1   
    21     7    58 1   
    22     7    59 1   
    23     8     9 1   
    24     8    60 1   
    25     8    61 1   
    26     9    10 1   
    27     9    62 1   
    28     9    63 1   
    29    10    11 2   
    30    10    64 1   
    31    11    12 1   
    32    11    65 1   
    33    12    13 1   
    34    12    66 1   
    35    12    67 1   
    36    13    14 1   
    37    13    68 1   
    38    13    69 1   
    39    14    15 1   
    40    14    70 1   
    41    14    71 1   
    42    15    16 1   
    43    15    72 1   
    44    15    73 1   
    45    16    17 1   
    46    16    74 1   
    47    16    75 1   
    48    17    18 1   
    49    17    76 1   
    50    17    77 1   
    51    18    19 1   
    52    18    20 1   
    53    18    78 1   
    54    19    79 1   
    55    20    21 1   
    56    21    22 1   
    57    21    24 1   
    58    21    80 1   
    59    22    23 1   
    60    22    81 1   
    61    22    82 1   
    62    23    83 1   
    63    24    25 1   
    64    24    84 1   
    65    24    85 1   
    66    25    26 1   
    67    26    27 1   
    68    26    28 1   
    69    26    86 1   
    70    27    87 1   
    71    28    29 1   
    72    28    88 1   
    73    28    89 1   
    74    29    30 1   
    75    29    90 1   
    76    29    91 1   
    77    30    31 1   
    78    30    92 1   
    79    30    93 1   
    80    31    32 1   
    81    31    94 1   
    82    31    95 1   
    83    32    33 1   
    84    32    96 1   
    85    32    97 1   
    86    33    34 1   
    87    33    98 1   
    88    33    99 1   
    89    34    35 2   
    90    34   100 1   
    91    35    36 1   
    92    35   101 1   
    93    36    37 1   
    94    36   102 1   
    95    36   103 1   
    96    37    38 1   
    97    37   104 1   
    98    37   105 1   
    99    38    39 1   
   100    38   106 1   
   101    38   107 1   
   102    39    40 1   
   103    39   108 1   
   104    39   109 1   
   105    40    41 1   
   106    40   110 1   
   107    40   111 1   
   108    41    42 1   
   109    41   112 1   
   110    41   113 1   
   111    42    43 1   
   112    42   114 1   
   113    42   115 1   
   114    43    44 1   
   115    43   116 1   
   116    43   117 1   
   117    44   118 1   
   118    44   119 1   
   119    44   120 1   
@<TRIPOS>SUBSTRUCTURE
     1 3WM         1 TEMP              0 ****  ****    0 ROOT
