@<TRIPOS>MOLECULE
3WM
  120   119     1     0     0
SMALL
No Charge or Current Charge


@<TRIPOS>ATOM
      1 CBF        -15.6640     7.2610    -2.0830 c3         1 3WM      -0.088100
      2 CBE        -14.8240     6.0470    -1.6440 c3         1 3WM      -0.074400
      3 CBD        -13.4810     6.4430    -0.9930 c3         1 3WM      -0.075400
      4 CBC        -12.6390     5.2260    -0.5540 c3         1 3WM      -0.074400
      5 CBB        -11.2950     5.6220     0.0950 c3         1 3WM      -0.074400
      6 CBA        -10.4510     4.4040     0.5310 c3         1 3WM      -0.073400
      7 CAZ         -9.1060     4.8010     1.1780 c3         1 3WM      -0.075400
      8 CAY         -8.2610     3.5820     1.6110 c3         1 3WM      -0.071400
      9 CAX         -6.9140     3.9750     2.2550 c3         1 3WM      -0.041200
     10 CAW         -6.1030     2.7620     2.6630 c2         1 3WM      -0.217200
     11 CAV         -4.9270     2.4020     2.1270 c2         1 3WM      -0.219200
     12 CAU         -4.1150     1.1900     2.5360 c3         1 3WM      -0.040200
     13 CAT         -4.0260     0.1450     1.4050 c3         1 3WM      -0.072400
     14 CAS         -3.2110    -1.1080     1.7970 c3         1 3WM      -0.075400
     15 CAR         -3.1330    -2.1550     0.6650 c3         1 3WM      -0.075400
     16 CAQ         -2.3230    -3.4110     1.0570 c3         1 3WM      -0.071400
     17 CAP         -2.2550    -4.4630    -0.0770 c3         1 3WM      -0.105400
     18 CAO         -1.4180    -5.7120     0.2740 c3         1 3WM       0.379300
     19 OAD         -2.0510    -6.4440     1.3140 oh         1 3WM      -0.684000
     20 OAN         -1.3660    -6.5230    -0.9030 os         1 3WM      -0.462000
     21 CAM         -0.5210    -7.7090    -0.8540 c3         1 3WM       0.180300
     22 CAL         -0.7150    -8.5330    -2.1680 c3         1 3WM       0.160600
     23 OAK         -0.4380    -7.7860    -3.3700 oh         1 3WM      -0.688000
     24 CBI          0.9660    -7.3450    -0.5340 c3         1 3WM       0.160600
     25 OBJ          1.4480    -6.3150    -1.4250 os         1 3WM      -0.451000
     26 CBK          2.7980    -5.9070    -1.2130 c3         1 3WM       0.379300
     27 OCC          3.6660    -6.9580    -1.6120 oh         1 3WM      -0.684000
     28 CBL          3.0380    -4.6610    -2.0940 c3         1 3WM      -0.104400
     29 CBM          4.4340    -4.0170    -1.9100 c3         1 3WM      -0.072400
     30 CBN          4.6310    -2.7480    -2.7680 c3         1 3WM      -0.074400
     31 CBO          6.0300    -2.1170    -2.6000 c3         1 3WM      -0.075400
     32 CBP          6.2270    -0.8460    -3.4560 c3         1 3WM      -0.073400
     33 CBQ          7.6310    -0.2250    -3.3040 c3         1 3WM      -0.043200
     34 CBR          7.7960     1.0250    -4.1490 c2         1 3WM      -0.215200
     35 CBS          7.6980     2.2990    -3.7320 c2         1 3WM      -0.216200
     36 CBT          7.3620     2.7750    -2.3310 c3         1 3WM      -0.042200
     37 CBU          8.6280     3.0820    -1.5050 c3         1 3WM      -0.073400
     38 CBV          8.3160     3.5620    -0.0700 c3         1 3WM      -0.074400
     39 CBW          9.5860     3.8640     0.7550 c3         1 3WM      -0.074400
     40 CBX          9.2750     4.3440     2.1900 c3         1 3WM      -0.073400
     41 CBY         10.5460     4.6440     3.0150 c3         1 3WM      -0.075400
     42 CBZ         10.2350     5.1250     4.4500 c3         1 3WM      -0.075400
     43 CCA         11.5050     5.4220     5.2760 c3         1 3WM      -0.075400
     44 CCB         11.1960     5.9030     6.7070 c3         1 3WM      -0.088100
     45 H1         -16.6060     6.9300    -2.5380 hc         1 3WM       0.031367
     46 H2         -15.9040     7.8990    -1.2240 hc         1 3WM       0.031367
     47 H3         -15.1200     7.8630    -2.8210 hc         1 3WM       0.031367
     48 H4         -15.4090     5.4470    -0.9350 hc         1 3WM       0.036700
     49 H5         -14.6320     5.4120    -2.5170 hc         1 3WM       0.036700
     50 H6         -12.9010     7.0460    -1.7030 hc         1 3WM       0.036700
     51 H7         -13.6780     7.0790    -0.1200 hc         1 3WM       0.036700
     52 H8         -13.2190     4.6240     0.1580 hc         1 3WM       0.036700
     53 H9         -12.4440     4.5890    -1.4260 hc         1 3WM       0.036700
     54 H10        -10.7160     6.2250    -0.6160 hc         1 3WM       0.036700
     55 H11        -11.4900     6.2570     0.9690 hc         1 3WM       0.036700
     56 H12        -11.0290     3.8020     1.2430 hc         1 3WM       0.037700
     57 H13        -10.2570     3.7690    -0.3420 hc         1 3WM       0.037700
     58 H14         -8.5290     5.4050     0.4670 hc         1 3WM       0.036700
     59 H15         -9.3000     5.4340     2.0530 hc         1 3WM       0.036700
     60 H16         -8.8370     2.9780     2.3230 hc         1 3WM       0.040200
     61 H17         -8.0670     2.9480     0.7360 hc         1 3WM       0.040200
     62 H18         -6.3470     4.5910     1.5460 hc         1 3WM       0.042700
     63 H19         -7.1030     4.6050     3.1330 hc         1 3WM       0.042700
     64 H20         -6.5540     2.1680     3.4600 ha         1 3WM       0.165000
     65 H21         -4.4760     2.9980     1.3310 ha         1 3WM       0.165000
     66 H22         -3.1030     1.5020     2.8220 hc         1 3WM       0.043200
     67 H23         -4.5570     0.7180     3.4220 hc         1 3WM       0.043200
     68 H24         -5.0410    -0.1600     1.1190 hc         1 3WM       0.040200
     69 H25         -3.5710     0.6100     0.5210 hc         1 3WM       0.040200
     70 H26         -2.1950    -0.8030     2.0770 hc         1 3WM       0.038200
     71 H27         -3.6640    -1.5690     2.6830 hc         1 3WM       0.038200
     72 H28         -4.1490    -2.4560     0.3830 hc         1 3WM       0.039200
     73 H29         -2.6770    -1.6950    -0.2210 hc         1 3WM       0.039200
     74 H30         -1.3040    -3.1120     1.3320 hc         1 3WM       0.043200
     75 H31         -2.7750    -3.8630     1.9490 hc         1 3WM       0.043200
     76 H32         -3.2710    -4.7700    -0.3540 hc         1 3WM       0.058700
     77 H33         -1.8140    -3.9930    -0.9640 hc         1 3WM       0.058700
     78 H34         -0.4180    -5.3980     0.5990 h2         1 3WM       0.057700
     79 H35         -2.8960    -6.7540     0.9280 ho         1 3WM       0.450000
     80 H36         -0.8590    -8.3640    -0.0400 h1         1 3WM       0.049700
     81 H37         -0.0680    -9.4200    -2.1220 h1         1 3WM       0.018700
     82 H38         -1.7510    -8.8960    -2.1920 h1         1 3WM       0.018700
     83 H39         -0.6660    -8.3680    -4.1290 ho         1 3WM       0.493000
     84 H40          1.0420    -7.0130     0.5100 h1         1 3WM       0.027700
     85 H41          1.5730    -8.2560    -0.6270 h1         1 3WM       0.027700
     86 H42          2.9800    -5.6570    -0.1590 h2         1 3WM       0.055700
     87 H43          3.3150    -7.2530    -2.4770 ho         1 3WM       0.449000
     88 H44          2.8940    -4.9270    -3.1480 hc         1 3WM       0.059200
     89 H45          2.2720    -3.9150    -1.8500 hc         1 3WM       0.059200
     90 H46          4.5760    -3.7630    -0.8520 hc         1 3WM       0.042700
     91 H47          5.2100    -4.7480    -2.1700 hc         1 3WM       0.042700
     92 H48          4.4740    -2.9990    -3.8240 hc         1 3WM       0.039200
     93 H49          3.8670    -2.0080    -2.4980 hc         1 3WM       0.039200
     94 H50          6.1890    -1.8670    -1.5430 hc         1 3WM       0.037700
     95 H51          6.7930    -2.8570    -2.8720 hc         1 3WM       0.037700
     96 H52          6.0560    -1.0910    -4.5120 hc         1 3WM       0.039700
     97 H53          5.4740    -0.1000    -3.1740 hc         1 3WM       0.039700
     98 H54          7.8120    -0.0070    -2.2450 hc         1 3WM       0.044700
     99 H55          8.3880    -0.9660    -3.5920 hc         1 3WM       0.044700
    100 H56          8.0350     0.8180    -5.1950 ha         1 3WM       0.164000
    101 H57          7.8510     3.1120    -4.4460 ha         1 3WM       0.164000
    102 H58          6.7380     3.6750    -2.3870 hc         1 3WM       0.044200
    103 H59          6.7620     2.0250    -1.8010 hc         1 3WM       0.044200
    104 H60          9.2510     2.1800    -1.4560 hc         1 3WM       0.039200
    105 H61          9.2170     3.8500    -2.0230 hc         1 3WM       0.039200
    106 H62          7.6950     4.4650    -0.1190 hc         1 3WM       0.037200
    107 H63          7.7260     2.7940     0.4460 hc         1 3WM       0.037200
    108 H64         10.2070     2.9610     0.8040 hc         1 3WM       0.037200
    109 H65         10.1770     4.6320     0.2390 hc         1 3WM       0.037200
    110 H66          8.6560     5.2490     2.1400 hc         1 3WM       0.037200
    111 H67          8.6830     3.5780     2.7050 hc         1 3WM       0.037200
    112 H68         11.1640     3.7390     3.0650 hc         1 3WM       0.036700
    113 H69         11.1380     5.4100     2.4990 hc         1 3WM       0.036700
    114 H70          9.6180     6.0310     4.4000 hc         1 3WM       0.036700
    115 H71          9.6410     4.3600     4.9650 hc         1 3WM       0.036700
    116 H72         12.1240     4.5170     5.3300 hc         1 3WM       0.036700
    117 H73         12.1020     6.1870     4.7640 hc         1 3WM       0.036700
    118 H74         12.1260     6.0980     7.2540 hc         1 3WM       0.031367
    119 H75         10.6080     6.8280     6.6870 hc         1 3WM       0.031367
    120 H76         10.6270     5.1430     7.2570 hc         1 3WM       0.031367
@<TRIPOS>BOND
     1     1     2 1   
     2     1    45 1   
     3     1    46 1   
     4     1    47 1   
     5     2     3 1   
     6     2    48 1   
     7     2    49 1   
     8     3     4 1   
     9     3    50 1   
    10     3    51 1   
    11     4     5 1   
    12     4    52 1   
    13     4    53 1   
    14     5     6 1   
    15     5    54 1   
    16     5    55 1   
    17     6     7 1   
    18     6    56 1   
    19     6    57 1   
    20     7     8 1   
    21     7    58 1   
    22     7    59 1   
    23     8     9 1   
    24     8    60 1   
    25     8    61 1   
    26     9    10 1   
    27     9    62 1   
    28     9    63 1   
    29    10    11 2   
    30    10    64 1   
    31    11    12 1   
    32    11    65 1   
    33    12    13 1   
    34    12    66 1   
    35    12    67 1   
    36    13    14 1   
    37    13    68 1   
    38    13    69 1   
    39    14    15 1   
    40    14    70 1   
    41    14    71 1   
    42    15    16 1   
    43    15    72 1   
    44    15    73 1   
    45    16    17 1   
    46    16    74 1   
    47    16    75 1   
    48    17    18 1   
    49    17    76 1   
    50    17    77 1   
    51    18    19 1   
    52    18    20 1   
    53    18    78 1   
    54    19    79 1   
    55    20    21 1   
    56    21    22 1   
    57    21    24 1   
    58    21    80 1   
    59    22    23 1   
    60    22    81 1   
    61    22    82 1   
    62    23    83 1   
    63    24    25 1   
    64    24    84 1   
    65    24    85 1   
    66    25    26 1   
    67    26    27 1   
    68    26    28 1   
    69    26    86 1   
    70    27    87 1   
    71    28    29 1   
    72    28    88 1   
    73    28    89 1   
    74    29    30 1   
    75    29    90 1   
    76    29    91 1   
    77    30    31 1   
    78    30    92 1   
    79    30    93 1   
    80    31    32 1   
    81    31    94 1   
    82    31    95 1   
    83    32    33 1   
    84    32    96 1   
    85    32    97 1   
    86    33    34 1   
    87    33    98 1   
    88    33    99 1   
    89    34    35 2   
    90    34   100 1   
    91    35    36 1   
    92    35   101 1   
    93    36    37 1   
    94    36   102 1   
    95    36   103 1   
    96    37    38 1   
    97    37   104 1   
    98    37   105 1   
    99    38    39 1   
   100    38   106 1   
   101    38   107 1   
   102    39    40 1   
   103    39   108 1   
   104    39   109 1   
   105    40    41 1   
   106    40   110 1   
   107    40   111 1   
   108    41    42 1   
   109    41   112 1   
   110    41   113 1   
   111    42    43 1   
   112    42   114 1   
   113    42   115 1   
   114    43    44 1   
   115    43   116 1   
   116    43   117 1   
   117    44   118 1   
   118    44   119 1   
   119    44   120 1   
@<TRIPOS>SUBSTRUCTURE
     1 3WM         1 TEMP              0 ****  ****    0 ROOT
