@<TRIPOS>MOLECULE
3WN
   30    32     1     0     0
SMALL
No Charge or Current Charge


@<TRIPOS>ATOM
      1 C1           3.6820     1.5030     0.5510 cc         1 3WN      -0.364200
      2 C2           4.6340     0.5350     0.3480 cd         1 3WN       0.062000
      3 C8           1.1570    -2.4620    -0.8220 ca         1 3WN       0.219900
      4 C10          0.4980    -0.3690    -0.2270 ca         1 3WN       0.448900
      5 C13         -1.9210     0.5190    -0.0800 ca         1 3WN       0.336000
      6 C14         -2.6730    -0.6470     0.1440 ca         1 3WN      -0.198000
      7 C15         -4.7300     0.6040    -0.1620 ca         1 3WN      -0.202000
      8 C16         -3.9900     1.7780    -0.3700 ca         1 3WN      -0.049000
      9 N3           4.1900    -0.7260    -0.0970 na         1 3WN      -0.749900
     10 C4           2.2590     1.3460     0.3650 c          1 3WN       0.613900
     11 C5           1.8420    -0.0030    -0.0420 ca         1 3WN      -0.380600
     12 C6           2.8280    -0.9750    -0.2590 ca         1 3WN       0.389900
     13 N7           2.4650    -2.2080    -0.6510 nb         1 3WN      -0.284000
     14 N9           0.1530    -1.5970    -0.6310 nb         1 3WN      -0.291000
     15 O11          1.4800     2.2770     0.5340 o          1 3WN      -0.606100
     16 N12         -0.5270     0.5440    -0.0320 nu         1 3WN      -0.916900
     17 C17         -4.0710    -0.6040     0.0990 ca         1 3WN       0.313000
     18 C18         -2.5870     1.7300    -0.3230 ca         1 3WN      -0.199000
     19 N19         -4.8000    -1.7390     0.3170 nv         1 3WN      -1.078000
     20 H1           3.9750     2.4950     0.8710 ha         1 3WN       0.214000
     21 H3           5.7050     0.6900     0.4940 h4         1 3WN       0.205000
     22 H4           0.8880    -3.4660    -1.1460 h5         1 3WN       0.048100
     23 H5          -2.1820    -1.5840     0.3730 ha         1 3WN       0.149000
     24 H6          -5.8160     0.6390    -0.1980 ha         1 3WN       0.113000
     25 H7          -4.5000     2.7190    -0.5670 ha         1 3WN       0.111000
     26 H8          -0.1380     1.4760     0.1440 hn         1 3WN       0.548000
     27 H9          -2.0180     2.6420    -0.4850 ha         1 3WN       0.122000
     28 H10         -4.3390    -2.5840     0.6480 hn         1 3WN       0.449500
     29 H11         -5.8110    -1.6800     0.4240 hn         1 3WN       0.449500
     30 H2           4.8510    -1.4790    -0.2890 hn         1 3WN       0.523000
@<TRIPOS>BOND
     1     1     2 2   
     2     1    10 1   
     3     1    20 1   
     4     2     9 1   
     5     2    21 1   
     6     3    13 ar  
     7     3    14 ar  
     8     3    22 1   
     9     4    11 ar  
    10     4    14 ar  
    11     4    16 1   
    12     5     6 ar  
    13     5    16 1   
    14     5    18 ar  
    15     6    17 ar  
    16     6    23 1   
    17     7     8 ar  
    18     7    17 ar  
    19     7    24 1   
    20     8    18 ar  
    21     8    25 1   
    22     9    12 1   
    23     9    30 1   
    24    10    11 1   
    25    10    15 2   
    26    11    12 ar  
    27    12    13 ar  
    28    16    26 1   
    29    17    19 1   
    30    18    27 1   
    31    19    28 1   
    32    19    29 1   
@<TRIPOS>SUBSTRUCTURE
     1 3WN         1 TEMP              0 ****  ****    0 ROOT
