@<TRIPOS>MOLECULE
3WN
   30    32     1     0     0
SMALL
bcc


@<TRIPOS>ATOM
      1 C1           3.6880     1.5990     0.1730 cc         1 3WN      -0.314200
      2 C2           4.5240     0.5410     0.0900 cd         1 3WN       0.112000
      3 C8           1.1120    -2.5260    -0.2590 ca         1 3WN       0.745900
      4 C10          0.4470    -0.3620    -0.0840 ca         1 3WN       0.777200
      5 C13         -1.8930     0.5170    -0.0450 ca         1 3WN       0.197600
      6 C14         -2.6290    -0.6580    -0.1640 ca         1 3WN      -0.216000
      7 C15         -4.6820     0.6140    -0.0520 ca         1 3WN      -0.220000
      8 C16         -3.9370     1.7760     0.0650 ca         1 3WN      -0.067000
      9 N3           4.0640    -0.7230    -0.0390 na         1 3WN      -0.694700
     10 C4           2.2600     1.4220     0.1230 c          1 3WN       0.613900
     11 C5           1.8180     0.0400    -0.0160 ca         1 3WN      -0.511200
     12 C6           2.7400    -1.0040    -0.0920 ca         1 3WN       0.718200
     13 N7           2.4040    -2.2930    -0.2140 nb         1 3WN      -0.810000
     14 N9           0.1220    -1.6480    -0.2030 nb         1 3WN      -0.817000
     15 O11          1.4690     2.3750     0.1930 o          1 3WN      -0.606100
     16 N12         -0.4990     0.5860    -0.0260 nu         1 3WN      -0.723300
     17 C17         -4.0270    -0.6150    -0.1680 ca         1 3WN       0.174600
     18 C18         -2.5550     1.7450     0.0680 ca         1 3WN      -0.217000
     19 N19         -4.7470    -1.7790    -0.3410 nv         1 3WN      -0.829200
     20 H1           4.0950     2.5940     0.2760 ha         1 3WN       0.164000
     21 H3           5.5970     0.6440     0.1210 h4         1 3WN       0.155000
     22 H4           0.8150    -3.5640    -0.3530 h5         1 3WN       0.048100
     23 H5          -2.1190    -1.6030    -0.2580 ha         1 3WN       0.167000
     24 H6          -5.7640     0.6610    -0.0520 ha         1 3WN       0.131000
     25 H7          -4.4460     2.7260     0.1580 ha         1 3WN       0.129000
     26 H8          -0.1000     1.5220     0.0670 hn         1 3WN       0.492800
     27 H9          -1.9910     2.6640     0.1660 ha         1 3WN       0.140000
     28 H10         -4.2770    -2.6310    -0.0880 hn         1 3WN       0.394300
     29 H11         -5.6990    -1.7580    -0.0170 hn         1 3WN       0.394300
     30 H2           4.7140    -1.4900    -0.0990 hn         1 3WN       0.467800
@<TRIPOS>BOND
     1     1     2 2   
     2     1    10 1   
     3     1    20 1   
     4     2     9 1   
     5     2    21 1   
     6     3    13 ar  
     7     3    14 ar  
     8     3    22 1   
     9     4    11 ar  
    10     4    14 ar  
    11     4    16 1   
    12     5     6 ar  
    13     5    16 1   
    14     5    18 ar  
    15     6    17 ar  
    16     6    23 1   
    17     7     8 ar  
    18     7    17 ar  
    19     7    24 1   
    20     8    18 ar  
    21     8    25 1   
    22     9    12 1   
    23     9    30 1   
    24    10    11 1   
    25    10    15 2   
    26    11    12 ar  
    27    12    13 ar  
    28    16    26 1   
    29    17    19 1   
    30    18    27 1   
    31    19    28 1   
    32    19    29 1   
@<TRIPOS>SUBSTRUCTURE
     1 3WN         1 TEMP              0 ****  ****    0 ROOT
