@<TRIPOS>MOLECULE
3WO
   30    32     1     0     0
SMALL
No Charge or Current Charge


@<TRIPOS>ATOM
      1 C1           3.4060     1.8110     0.7200 c6         1 3WO      -0.297700
      2 C2           4.4850     0.9780     0.0930 c2         1 3WO       0.477200
      3 C8           1.5980    -2.6470    -0.2930 ca         1 3WO       0.199900
      4 C10          0.6150    -0.5920    -0.0870 ca         1 3WO       0.441900
      5 C13         -1.8850    -0.0510     0.1390 ca         1 3WO       0.334000
      6 C14         -2.7940     0.8910    -0.3600 ca         1 3WO      -0.227000
      7 C15         -4.6490    -0.4390     0.4650 ca         1 3WO      -0.195000
      8 C16         -3.7460    -1.3810     0.9850 ca         1 3WO      -0.054000
      9 N3           4.2800    -0.2600    -0.2570 ne         1 3WO      -0.627700
     10 C4           2.1110     1.4490     0.0410 c          1 3WO       0.621700
     11 C5           1.8800    -0.0040    -0.0710 ca         1 3WO      -0.399600
     12 C6           2.9970    -0.8380    -0.1930 ca         1 3WO       0.370000
     13 N7           2.8580    -2.1710    -0.3020 nb         1 3WO      -0.197000
     14 N9           0.4660    -1.9210    -0.2010 nb         1 3WO      -0.263000
     15 O11          1.4140     2.2700    -0.5400 o          1 3WO      -0.566100
     16 N12         -0.5230     0.1960    -0.0330 nu         1 3WO      -0.916900
     17 C17         -4.1700     0.6950    -0.2020 ca         1 3WO       0.315000
     18 C18         -2.3650    -1.1830     0.8240 ca         1 3WO      -0.162000
     19 N19         -5.0490     1.6140    -0.6990 nv         1 3WO      -1.075000
     20 H1           3.3490     1.4750     1.7630 hc         1 3WO       0.102700
     21 H2           3.6090     2.8860     0.6530 hc         1 3WO       0.102700
     22 H3           5.4830     1.4010     0.0110 h4         1 3WO       0.034800
     23 H4           1.4820    -3.7260    -0.3820 h5         1 3WO       0.053100
     24 H5          -2.4310     1.7710    -0.8800 ha         1 3WO       0.117000
     25 H6          -5.7170    -0.5920     0.5890 ha         1 3WO       0.114000
     26 H7          -4.1150    -2.2580     1.5140 ha         1 3WO       0.112000
     27 H8          -0.3110     1.1670    -0.2720 hn         1 3WO       0.535000
     28 H9          -1.6760    -1.9040     1.2490 ha         1 3WO       0.148000
     29 H10         -4.7040     2.5050    -1.0510 hn         1 3WO       0.450000
     30 H11         -6.0370     1.5520    -0.4600 hn         1 3WO       0.450000
@<TRIPOS>BOND
     1     1     2 1   
     2     1    10 1   
     3     1    20 1   
     4     1    21 1   
     5     2     9 2   
     6     2    22 1   
     7     3    13 ar  
     8     3    14 ar  
     9     3    23 1   
    10     4    11 ar  
    11     4    14 ar  
    12     4    16 1   
    13     5     6 ar  
    14     5    16 1   
    15     5    18 ar  
    16     6    17 ar  
    17     6    24 1   
    18     7     8 ar  
    19     7    17 ar  
    20     7    25 1   
    21     8    18 ar  
    22     8    26 1   
    23     9    12 1   
    24    10    11 1   
    25    10    15 2   
    26    11    12 ar  
    27    12    13 ar  
    28    16    27 1   
    29    17    19 1   
    30    18    28 1   
    31    19    29 1   
    32    19    30 1   
@<TRIPOS>SUBSTRUCTURE
     1 3WO         1 TEMP              0 ****  ****    0 ROOT
