@<TRIPOS>MOLECULE
3WO
   30    32     1     0     0
SMALL
bcc


@<TRIPOS>ATOM
      1 C1           3.5000     1.9270     0.1620 c6         1 3WO      -0.297700
      2 C2           4.5100     0.8450     0.1230 c2         1 3WO       0.477200
      3 C8           1.5610    -2.5990     0.0280 ca         1 3WO       0.725900
      4 C10          0.5610    -0.5680     0.0930 ca         1 3WO       0.770200
      5 C13         -1.8990    -0.1440     0.1240 ca         1 3WO       0.195600
      6 C14         -2.7710     0.9160    -0.1330 ca         1 3WO      -0.245000
      7 C15         -4.6610    -0.5390     0.1460 ca         1 3WO      -0.213000
      8 C16         -3.7890    -1.5810     0.4010 ca         1 3WO      -0.072000
      9 N3           4.2750    -0.4040     0.0830 ne         1 3WO      -0.627700
     10 C4           2.0700     1.4760     0.1340 c          1 3WO       0.621700
     11 C5           1.8530     0.0410     0.1010 ca         1 3WO      -0.530200
     12 C6           2.9490    -0.8310     0.0740 ca         1 3WO       0.698300
     13 N7           2.8070    -2.1500     0.0370 nb         1 3WO      -0.723000
     14 N9           0.4490    -1.8980     0.0550 nb         1 3WO      -0.789000
     15 O11          1.1630     2.2970     0.1410 o          1 3WO      -0.566100
     16 N12         -0.5390     0.1950     0.1180 nu         1 3WO      -0.723300
     17 C17         -4.1540     0.7380    -0.1270 ca         1 3WO       0.176600
     18 C18         -2.4090    -1.4130     0.3960 ca         1 3WO      -0.180000
     19 N19         -4.9970     1.7800    -0.4400 nv         1 3WO      -0.826200
     20 H1           3.6710     2.5370     1.0570 hc         1 3WO       0.102700
     21 H2           3.6840     2.6140    -0.6730 hc         1 3WO       0.102700
     22 H3           5.5520     1.1540     0.1310 h4         1 3WO       0.034800
     23 H4           1.4420    -3.6770    -0.0070 h5         1 3WO       0.053100
     24 H5          -2.3670     1.9000    -0.3490 ha         1 3WO       0.135000
     25 H6          -5.7310    -0.7040     0.1590 ha         1 3WO       0.132000
     26 H7          -4.1910    -2.5620     0.6180 ha         1 3WO       0.130000
     27 H8          -0.3410     1.1910     0.1080 hn         1 3WO       0.479800
     28 H9          -1.7590    -2.2470     0.5990 ha         1 3WO       0.166000
     29 H10         -4.6340     2.7070    -0.2860 hn         1 3WO       0.394800
     30 H11         -5.9450     1.6910    -0.1120 hn         1 3WO       0.394800
@<TRIPOS>BOND
     1     1     2 1   
     2     1    10 1   
     3     1    20 1   
     4     1    21 1   
     5     2     9 2   
     6     2    22 1   
     7     3    13 ar  
     8     3    14 ar  
     9     3    23 1   
    10     4    11 ar  
    11     4    14 ar  
    12     4    16 1   
    13     5     6 ar  
    14     5    16 1   
    15     5    18 ar  
    16     6    17 ar  
    17     6    24 1   
    18     7     8 ar  
    19     7    17 ar  
    20     7    25 1   
    21     8    18 ar  
    22     8    26 1   
    23     9    12 1   
    24    10    11 1   
    25    10    15 2   
    26    11    12 ar  
    27    12    13 ar  
    28    16    27 1   
    29    17    19 1   
    30    18    28 1   
    31    19    29 1   
    32    19    30 1   
@<TRIPOS>SUBSTRUCTURE
     1 3WO         1 TEMP              0 ****  ****    0 ROOT
