@<TRIPOS>MOLECULE
3WP
   28    29     1     0     0
SMALL
abcg2


@<TRIPOS>ATOM
      1 C4           2.6260    -1.5110     0.6130 c6         1 3WP       0.066600
      2 N2           3.0680     2.3460    -0.3520 nv         1 3WP      -1.010200
      3 C7          -1.2560     1.2910    -0.0280 ca         1 3WP      -0.036000
      4 C6          -0.8460    -0.0270    -0.2200 ca         1 3WP      -0.122300
      5 C9          -3.5150     0.6390     0.3090 ca         1 3WP       0.198000
      6 C8          -2.5720     1.6420     0.2350 ca         1 3WP      -0.173000
      7 C1           0.7610    -1.1210    -1.8210 c3         1 3WP      -0.091100
      8 C2           0.6250    -0.3700    -0.4850 c6         1 3WP       0.245500
      9 C3           1.1420    -1.2160     0.6910 c6         1 3WP      -0.109400
     10 S1           3.5960     0.0180     0.6620 ss         1 3WP      -0.398200
     11 C5           2.5050     1.1070    -0.2220 c2         1 3WP       0.706100
     12 N1           1.3350     0.8790    -0.6440 n2         1 3WP      -0.715900
     13 C10         -3.1760    -0.6860     0.1300 ca         1 3WP      -0.204000
     14 C11         -1.8510    -0.9840    -0.1270 ca         1 3WP       0.195000
     15 F1          -1.5620    -2.2880    -0.2870 f          1 3WP      -0.182000
     16 F2          -4.7940     0.9480     0.5620 f          1 3WP      -0.173000
     17 H6           2.9450    -2.0890     1.4790 h1         1 3WP       0.076700
     18 H7           2.8860    -2.0820    -0.2770 h1         1 3WP       0.076700
     19 H9           2.5790     2.9670    -0.9790 hn         1 3WP       0.470000
     20 H8           4.0710     2.4010    -0.4370 hn         1 3WP       0.470000
     21 H11         -2.8520     2.6770     0.3800 ha         1 3WP       0.137000
     22 H3           0.3170    -0.5350    -2.6270 hc         1 3WP       0.047033
     23 H2           1.8120    -1.2700    -2.0660 hc         1 3WP       0.047033
     24 H1           0.2810    -2.0970    -1.8040 hc         1 3WP       0.047033
     25 H5           0.6170    -2.1700     0.7190 hc         1 3WP       0.070700
     26 H4           0.9230    -0.7040     1.6320 hc         1 3WP       0.070700
     27 H12         -3.9170    -1.4730     0.1890 ha         1 3WP       0.148000
     28 H10         -0.5100     2.0700    -0.0910 ha         1 3WP       0.144000
@<TRIPOS>BOND
     1     1     9 1   
     2     1    10 1   
     3     1    17 1   
     4     1    18 1   
     5     2    11 1   
     6     2    19 1   
     7     2    20 1   
     8     3     4 ar  
     9     3     6 ar  
    10     3    28 1   
    11     4     8 1   
    12     4    14 ar  
    13     5     6 ar  
    14     5    13 ar  
    15     5    16 1   
    16     6    21 1   
    17     7     8 1   
    18     7    22 1   
    19     7    23 1   
    20     7    24 1   
    21     8     9 1   
    22     8    12 1   
    23     9    25 1   
    24     9    26 1   
    25    10    11 1   
    26    11    12 2   
    27    13    14 ar  
    28    13    27 1   
    29    14    15 1   
@<TRIPOS>SUBSTRUCTURE
     1 3WP         1 TEMP              0 ****  ****    0 ROOT
