@<TRIPOS>MOLECULE
3WP
   28    29     1     0     0
SMALL
No Charge or Current Charge


@<TRIPOS>ATOM
      1 C4           2.6410    -1.5010     0.6530 c6         1 3WP       0.066600
      2 N2           3.2140     2.2980    -0.4890 nv         1 3WP      -1.010200
      3 C7          -1.3180     1.3280     0.1140 ca         1 3WP      -0.036000
      4 C6          -0.8900     0.0060    -0.1890 ca         1 3WP      -0.122300
      5 C9          -3.6290     0.5970     0.2880 ca         1 3WP       0.198000
      6 C8          -2.6750     1.6170     0.3440 ca         1 3WP      -0.173000
      7 C1           0.7980    -1.0730    -1.7900 c3         1 3WP      -0.091100
      8 C2           0.6220    -0.3130    -0.4340 c6         1 3WP       0.245500
      9 C3           1.1490    -1.1570     0.7680 c6         1 3WP      -0.109400
     10 S1           3.6580     0.0200     0.5910 ss         1 3WP      -0.398200
     11 C5           2.5790     1.1350    -0.2650 c2         1 3WP       0.706100
     12 N1           1.3760     0.9490    -0.6360 n2         1 3WP      -0.715900
     13 C10         -3.2370    -0.7140     0.0120 ca         1 3WP      -0.204000
     14 C11         -1.8860    -1.0110    -0.2190 ca         1 3WP       0.195000
     15 F1          -1.5680    -2.3030    -0.4520 f          1 3WP      -0.182000
     16 F2          -4.9310     0.8780     0.5110 f          1 3WP      -0.173000
     17 H6           2.9660    -2.1020     1.5150 h1         1 3WP       0.076700
     18 H7           2.8320    -2.0870    -0.2560 h1         1 3WP       0.076700
     19 H9           2.7920     2.8140    -1.2490 hn         1 3WP       0.470000
     20 H8           4.2190     2.2020    -0.5370 hn         1 3WP       0.470000
     21 H11         -2.9850     2.6340     0.5690 ha         1 3WP       0.137000
     22 H3           0.2220    -0.5910    -2.5880 hc         1 3WP       0.047033
     23 H2           1.8450    -1.0900    -2.1160 hc         1 3WP       0.047033
     24 H1           0.4780    -2.1180    -1.7330 hc         1 3WP       0.047033
     25 H5           0.5820    -2.0920     0.8590 hc         1 3WP       0.070700
     26 H4           0.9750    -0.6070     1.7030 hc         1 3WP       0.070700
     27 H12         -3.9790    -1.5060    -0.0190 ha         1 3WP       0.148000
     28 H10         -0.6110     2.1500     0.1790 ha         1 3WP       0.144000
@<TRIPOS>BOND
     1     1     9 1   
     2     1    10 1   
     3     1    17 1   
     4     1    18 1   
     5     2    11 1   
     6     2    19 1   
     7     2    20 1   
     8     3     4 ar  
     9     3     6 ar  
    10     3    28 1   
    11     4     8 1   
    12     4    14 ar  
    13     5     6 ar  
    14     5    13 ar  
    15     5    16 1   
    16     6    21 1   
    17     7     8 1   
    18     7    22 1   
    19     7    23 1   
    20     7    24 1   
    21     8     9 1   
    22     8    12 1   
    23     9    25 1   
    24     9    26 1   
    25    10    11 1   
    26    11    12 2   
    27    13    14 ar  
    28    13    27 1   
    29    14    15 1   
@<TRIPOS>SUBSTRUCTURE
     1 3WP         1 TEMP              0 ****  ****    0 ROOT
