@<TRIPOS>MOLECULE
3WQ
   47    49     1     0     0
SMALL
No Charge or Current Charge


@<TRIPOS>ATOM
      1 CAA          6.5790     1.7790    -0.0710 c3         1 3WQ      -0.091100
      2 CAO          5.9400     0.3810    -0.1910 c3         1 3WQ      -0.081400
      3 CAP          4.4190     0.3910     0.0560 c3         1 3WQ       0.160600
      4 OAQ          3.9470    -0.9620    -0.0830 os         1 3WQ      -0.336100
      5 CAS          2.6270    -1.3150     0.0780 cc         1 3WQ       0.181100
      6 CAN          1.6990    -0.3380     0.3840 cd         1 3WQ      -0.231000
      7 CAX          0.3690    -0.8400     0.5310 cd         1 3WQ      -0.023000
      8 CAK          2.2550    -2.6950    -0.0920 cc         1 3WQ      -0.175000
      9 CAL          0.9450    -3.1560     0.0310 cd         1 3WQ      -0.063000
     10 NAY          0.0070    -2.1650     0.3630 na         1 3WQ       0.181100
     11 CAU         -1.3750    -2.3670     0.4440 cd         1 3WQ      -0.279300
     12 CAR         -2.1990    -3.5990     0.3010 c          1 3WQ       0.618300
     13 OAD         -1.7050    -4.6970     0.0830 o          1 3WQ      -0.570100
     14 CAB         -3.7160    -3.4720     0.4340 c3         1 3WQ      -0.186100
     15 CAM         -1.8620    -1.0950     0.6990 cc         1 3WQ      -0.081000
     16 CAV         -0.7930    -0.1550     0.7900 cc         1 3WQ      -0.215200
     17 CAT         -0.8130     1.3080     0.9290 ca         1 3WQ       0.095200
     18 CAI          0.0140     1.8540     1.9330 ca         1 3WQ      -0.129000
     19 CAG          0.0440     3.2320     2.1910 ca         1 3WQ      -0.062000
     20 CAH         -0.7600     4.0940     1.4380 ca         1 3WQ      -0.131000
     21 CAJ         -1.5790     3.5790     0.4230 ca         1 3WQ      -0.023000
     22 CAW         -1.6200     2.1900     0.1500 ca         1 3WQ      -0.246500
     23 SAZ         -2.5990     1.6640    -1.2910 sy         1 3WQ       1.056500
     24 OAE         -3.6500     0.7410    -0.8490 o          1 3WQ      -0.531500
     25 OAF         -2.9530     2.8550    -2.0750 o          1 3WQ      -0.531500
     26 CAC         -1.4670     0.7070    -2.3060 c3         1 3WQ      -0.330100
     27 H1           6.1420     2.4700    -0.8030 hc         1 3WQ       0.038367
     28 H2           6.4220     2.1930     0.9320 hc         1 3WQ       0.038367
     29 H3           7.6590     1.7230    -0.2540 hc         1 3WQ       0.038367
     30 H4           6.1400    -0.0200    -1.1920 hc         1 3WQ       0.056700
     31 H5           6.4180    -0.2940     0.5300 hc         1 3WQ       0.056700
     32 H6           4.2160     0.7730     1.0650 h1         1 3WQ       0.039700
     33 H7           3.9350     1.0500    -0.6770 h1         1 3WQ       0.039700
     34 H8           1.9320     0.7130     0.4920 ha         1 3WQ       0.141000
     35 H9           3.0460    -3.3960    -0.3390 ha         1 3WQ       0.150000
     36 H10          0.6270    -4.1800    -0.1030 h4         1 3WQ       0.184000
     37 H11         -4.0740    -2.7190    -0.2760 hc         1 3WQ       0.065033
     38 H12         -4.2330    -4.4290     0.3040 hc         1 3WQ       0.065033
     39 H13         -3.9510    -3.0180     1.4030 hc         1 3WQ       0.065033
     40 H14         -2.9070    -0.8330     0.8540 ha         1 3WQ       0.230000
     41 H15          0.6240     1.1940     2.5440 ha         1 3WQ       0.121000
     42 H16          0.6830     3.6270     2.9780 ha         1 3WQ       0.116000
     43 H17         -0.7410     5.1640     1.6330 ha         1 3WQ       0.121000
     44 H18         -2.1760     4.2790    -0.1600 ha         1 3WQ       0.146000
     45 H19         -1.2000    -0.2130    -1.7810 h1         1 3WQ       0.104033
     46 H20         -1.9770     0.4710    -3.2450 h1         1 3WQ       0.104033
     47 H21         -0.5790     1.3180    -2.4930 h1         1 3WQ       0.104033
@<TRIPOS>BOND
     1     1     2 1   
     2     1    27 1   
     3     1    28 1   
     4     1    29 1   
     5     2     3 1   
     6     2    30 1   
     7     2    31 1   
     8     3     4 1   
     9     3    32 1   
    10     3    33 1   
    11     4     5 1   
    12     5     6 2   
    13     5     8 1   
    14     6     7 1   
    15     6    34 1   
    16     7    10 1   
    17     7    16 2   
    18     8     9 2   
    19     8    35 1   
    20     9    10 1   
    21     9    36 1   
    22    10    11 1   
    23    11    12 1   
    24    11    15 2   
    25    12    13 2   
    26    12    14 1   
    27    14    37 1   
    28    14    38 1   
    29    14    39 1   
    30    15    16 1   
    31    15    40 1   
    32    16    17 1   
    33    17    18 ar  
    34    17    22 ar  
    35    18    19 ar  
    36    18    41 1   
    37    19    20 ar  
    38    19    42 1   
    39    20    21 ar  
    40    20    43 1   
    41    21    22 ar  
    42    21    44 1   
    43    22    23 1   
    44    23    24 2   
    45    23    25 2   
    46    23    26 1   
    47    26    45 1   
    48    26    46 1   
    49    26    47 1   
@<TRIPOS>SUBSTRUCTURE
     1 3WQ         1 TEMP              0 ****  ****    0 ROOT
