@<TRIPOS>MOLECULE
3WQ
   47    49     1     0     0
SMALL
abcg2


@<TRIPOS>ATOM
      1 CAA          6.4210     1.7110    -0.1330 c3         1 3WQ      -0.091100
      2 CAO          5.8780     0.2930    -0.2470 c3         1 3WQ      -0.081400
      3 CAP          4.3780     0.2700    -0.0470 c3         1 3WQ       0.160600
      4 OAQ          3.9320    -1.0790    -0.1450 os         1 3WQ      -0.336100
      5 CAS          2.6350    -1.3400     0.0230 cc         1 3WQ       0.181100
      6 CAN          1.6640    -0.4070     0.2850 cd         1 3WQ      -0.231000
      7 CAX          0.3340    -0.8300     0.4400 cd         1 3WQ      -0.023000
      8 CAK          2.2670    -2.7080    -0.0900 cc         1 3WQ      -0.175000
      9 CAL          0.9760    -3.0900     0.0530 cd         1 3WQ      -0.063000
     10 NAY          0.0100    -2.1630     0.3150 na         1 3WQ       0.181100
     11 CAU         -1.3650    -2.3180     0.4890 cd         1 3WQ      -0.279300
     12 CAR         -2.0670    -3.5730     0.4190 c          1 3WQ       0.618300
     13 OAD         -1.5010    -4.6430     0.2240 o          1 3WQ      -0.570100
     14 CAB         -3.5670    -3.5130     0.5680 c3         1 3WQ      -0.186100
     15 CAM         -1.8810    -1.0470     0.7150 cc         1 3WQ      -0.081000
     16 CAV         -0.8500    -0.1150     0.6880 cc         1 3WQ      -0.215200
     17 CAT         -0.8910     1.3320     0.9400 ca         1 3WQ       0.095200
     18 CAI         -0.2090     1.8270     2.0530 ca         1 3WQ      -0.129000
     19 CAG         -0.1860     3.1800     2.3500 ca         1 3WQ      -0.062000
     20 CAH         -0.8480     4.0820     1.5310 ca         1 3WQ      -0.131000
     21 CAJ         -1.5180     3.6240     0.4080 ca         1 3WQ      -0.023000
     22 CAW         -1.5360     2.2650     0.1170 ca         1 3WQ      -0.246500
     23 SAZ         -2.4260     1.7820    -1.3540 sy         1 3WQ       1.056500
     24 OAE         -3.5030     0.8650    -0.9880 o          1 3WQ      -0.531500
     25 OAF         -2.7930     3.0080    -2.0620 o          1 3WQ      -0.531500
     26 CAC         -1.2450     0.9200    -2.3660 c3         1 3WQ      -0.330100
     27 H1           5.9760     2.3710    -0.8800 hc         1 3WQ       0.038367
     28 H2           6.2160     2.1380     0.8510 hc         1 3WQ       0.038367
     29 H3           7.5000     1.7260    -0.2810 hc         1 3WQ       0.038367
     30 H4           6.1210    -0.1200    -1.2290 hc         1 3WQ       0.056700
     31 H5           6.3550    -0.3480     0.4980 hc         1 3WQ       0.056700
     32 H6           4.1170     0.6790     0.9350 h1         1 3WQ       0.039700
     33 H7           3.8820     0.8830    -0.8070 h1         1 3WQ       0.039700
     34 H8           1.8710     0.6490     0.3770 ha         1 3WQ       0.141000
     35 H9           3.0180    -3.4580    -0.2940 ha         1 3WQ       0.150000
     36 H10          0.6590    -4.1150    -0.0310 h4         1 3WQ       0.184000
     37 H11         -4.0190    -3.1970    -0.3750 hc         1 3WQ       0.065033
     38 H12         -3.9540    -4.5000     0.8150 hc         1 3WQ       0.065033
     39 H13         -3.8880    -2.8080     1.3330 hc         1 3WQ       0.065033
     40 H14         -2.9180    -0.8280     0.9070 ha         1 3WQ       0.230000
     41 H15          0.3020     1.1270     2.7010 ha         1 3WQ       0.121000
     42 H16          0.3440     3.5280     3.2260 ha         1 3WQ       0.116000
     43 H17         -0.8390     5.1400     1.7570 ha         1 3WQ       0.121000
     44 H18         -2.0160     4.3290    -0.2410 ha         1 3WQ       0.146000
     45 H19         -0.9580    -0.0160    -1.8980 h1         1 3WQ       0.104033
     46 H20         -1.7420     0.7230    -3.3160 h1         1 3WQ       0.104033
     47 H21         -0.3750     1.5550    -2.5230 h1         1 3WQ       0.104033
@<TRIPOS>BOND
     1     1     2 1   
     2     1    27 1   
     3     1    28 1   
     4     1    29 1   
     5     2     3 1   
     6     2    30 1   
     7     2    31 1   
     8     3     4 1   
     9     3    32 1   
    10     3    33 1   
    11     4     5 1   
    12     5     6 2   
    13     5     8 1   
    14     6     7 1   
    15     6    34 1   
    16     7    10 1   
    17     7    16 2   
    18     8     9 2   
    19     8    35 1   
    20     9    10 1   
    21     9    36 1   
    22    10    11 1   
    23    11    12 1   
    24    11    15 2   
    25    12    13 2   
    26    12    14 1   
    27    14    37 1   
    28    14    38 1   
    29    14    39 1   
    30    15    16 1   
    31    15    40 1   
    32    16    17 1   
    33    17    18 ar  
    34    17    22 ar  
    35    18    19 ar  
    36    18    41 1   
    37    19    20 ar  
    38    19    42 1   
    39    20    21 ar  
    40    20    43 1   
    41    21    22 ar  
    42    21    44 1   
    43    22    23 1   
    44    23    24 2   
    45    23    25 2   
    46    23    26 1   
    47    26    45 1   
    48    26    46 1   
    49    26    47 1   
@<TRIPOS>SUBSTRUCTURE
     1 3WQ         1 TEMP              0 ****  ****    0 ROOT
