@<TRIPOS>MOLECULE
3WR
   47    50     1     0     0
SMALL
abcg2


@<TRIPOS>ATOM
      1 C1           5.1990    -0.2520    -0.1300 ca         1 3WR       0.402900
      2 C3           6.5130     0.2250    -0.1860 ca         1 3WR      -0.385600
      3 C7           6.8510     1.5830     0.2120 c          1 3WR       0.615900
      4 C8           7.4770    -0.7150    -0.6640 ca         1 3WR       0.446900
      5 C9           5.8290    -2.2500    -0.9280 ca         1 3WR       0.217900
      6 C10          2.4640    -0.7640     1.4090 ca         1 3WR      -0.061500
      7 C11          1.9100     0.5690    -0.5040 ca         1 3WR      -0.061500
      8 C12          5.7260     2.3680     0.6550 cc         1 3WR      -0.368200
      9 C16          1.1450    -1.1580     1.5070 ca         1 3WR      -0.146500
     10 C20         -2.2690    -0.6600     0.2370 c          1 3WR       0.668100
     11 C24         -5.1780     0.2440     0.2060 ca         1 3WR      -0.038000
     12 C27         -6.8150    -1.8510    -0.6130 ca         1 3WR      -0.139000
     13 C30         -7.0040     1.8890    -0.2540 c3         1 3WR       0.361300
     14 N2           4.1990     0.5680     0.3210 na         1 3WR      -0.635900
     15 N4           4.8460    -1.4840    -0.5010 nb         1 3WR      -0.278000
     16 C5           2.8480     0.1080     0.4010 ca         1 3WR       0.237000
     17 C6           4.4830     1.8460     0.6970 cd         1 3WR       0.067000
     18 O13          8.0020     2.0340     0.1780 o          1 3WR      -0.609100
     19 N14          7.1090    -1.9500    -1.0300 nb         1 3WR      -0.308000
     20 N15          8.7620    -0.4060    -0.7620 nv         1 3WR      -1.051900
     21 C17          0.5810     0.1810    -0.4100 ca         1 3WR      -0.146500
     22 C18          0.1830    -0.6880     0.6060 ca         1 3WR       0.004000
     23 N19         -1.1170    -1.1540     0.7840 ns         1 3WR      -0.157000
     24 N21         -3.3810    -1.3580     0.6370 ns         1 3WR      -0.170000
     25 O22         -2.3210     0.2950    -0.5140 o          1 3WR      -0.595100
     26 C23         -4.6720    -1.0530     0.2050 ca         1 3WR      -0.064000
     27 C25         -5.5160    -2.0770    -0.2110 ca         1 3WR       0.160000
     28 C26         -6.4770     0.4880    -0.2140 ca         1 3WR      -0.196300
     29 F28         -5.0440    -3.3290    -0.2060 f          1 3WR      -0.174000
     30 C29         -7.2990    -0.5550    -0.6260 ca         1 3WR      -0.048000
     31 F31         -6.2810     2.7300     0.4900 f          1 3WR      -0.110667
     32 F32         -7.0070     2.3790    -1.5030 f          1 3WR      -0.110667
     33 F33         -8.2670     1.9590     0.1850 f          1 3WR      -0.110667
     34 H1           5.5510    -3.2530    -1.2350 h5         1 3WR       0.046100
     35 H2           3.1890    -1.1310     2.1240 ha         1 3WR       0.129500
     36 H3           2.2090     1.2380    -1.3020 ha         1 3WR       0.129500
     37 H4           5.8820     3.3900     0.9710 ha         1 3WR       0.213000
     38 H5           0.8530    -1.8320     2.3030 ha         1 3WR       0.134500
     39 H6          -4.5500     1.0500     0.5530 ha         1 3WR       0.155000
     40 H7          -7.4360    -2.6800    -0.9240 ha         1 3WR       0.142000
     41 H8           3.6360     2.4220     1.0410 h4         1 3WR       0.208000
     42 H9           9.0820     0.5100    -0.4870 hn         1 3WR       0.521500
     43 H10          9.4150    -1.0990    -1.0900 hn         1 3WR       0.521500
     44 H11         -0.1220     0.5560    -1.1350 ha         1 3WR       0.134500
     45 H12         -1.2120    -1.8770     1.4810 hn         1 3WR       0.152000
     46 H13         -3.2560    -2.2450     1.1030 hn         1 3WR       0.162000
     47 H14         -8.3150    -0.3760    -0.9510 ha         1 3WR       0.137000
@<TRIPOS>BOND
     1     1     2 ar  
     2     1    14 1   
     3     1    15 ar  
     4     2     3 1   
     5     2     4 ar  
     6     3     8 1   
     7     3    18 2   
     8     4    19 ar  
     9     4    20 1   
    10     5    15 ar  
    11     5    19 ar  
    12     5    34 1   
    13     6     9 ar  
    14     6    16 ar  
    15     6    35 1   
    16     7    16 ar  
    17     7    21 ar  
    18     7    36 1   
    19     8    17 2   
    20     8    37 1   
    21     9    22 ar  
    22     9    38 1   
    23    10    23 1   
    24    10    24 1   
    25    10    25 2   
    26    11    26 ar  
    27    11    28 ar  
    28    11    39 1   
    29    12    27 ar  
    30    12    30 ar  
    31    12    40 1   
    32    13    28 1   
    33    13    31 1   
    34    13    32 1   
    35    13    33 1   
    36    14    16 1   
    37    14    17 1   
    38    17    41 1   
    39    20    42 1   
    40    20    43 1   
    41    21    22 ar  
    42    21    44 1   
    43    22    23 1   
    44    23    45 1   
    45    24    26 1   
    46    24    46 1   
    47    26    27 ar  
    48    27    29 1   
    49    28    30 ar  
    50    30    47 1   
@<TRIPOS>SUBSTRUCTURE
     1 3WR         1 TEMP              0 ****  ****    0 ROOT
