@<TRIPOS>MOLECULE
3WR
   47    50     1     0     0
SMALL
No Charge or Current Charge


@<TRIPOS>ATOM
      1 C1           5.2430    -0.1830    -0.2810 ca         1 3WR       0.402900
      2 C3           6.5990     0.1760    -0.2830 ca         1 3WR      -0.385600
      3 C7           7.1060     1.0510     0.7890 c          1 3WR       0.615900
      4 C8           7.4020    -0.3120    -1.3200 ca         1 3WR       0.446900
      5 C9           5.6310    -1.4040    -2.2090 ca         1 3WR       0.217900
      6 C10          2.5200    -1.0650     1.5700 ca         1 3WR      -0.061500
      7 C11          2.1320     0.7450     0.0020 ca         1 3WR      -0.061500
      8 C12          6.0870     1.5880     1.6690 cc         1 3WR      -0.368200
      9 C16          1.1400    -1.3350     1.5970 ca         1 3WR      -0.146500
     10 C20         -2.2700    -0.3560     0.3190 c          1 3WR       0.668100
     11 C24         -5.2670     0.1280    -0.5300 ca         1 3WR      -0.038000
     12 C27         -7.1040    -1.6190     0.6760 ca         1 3WR      -0.139000
     13 C30         -7.1200     1.3320    -1.7990 c3         1 3WR       0.361300
     14 N2           4.3900     0.2420     0.7480 na         1 3WR      -0.635900
     15 N4           4.7750    -0.9850    -1.2620 nb         1 3WR      -0.278000
     16 C5           3.0210    -0.0230     0.7730 ca         1 3WR       0.237000
     17 C6           4.7540     1.2550     1.6540 cd         1 3WR       0.067000
     18 O13          8.2890     1.3340     0.9320 o          1 3WR      -0.609100
     19 N14          6.9360    -1.1040    -2.2850 nb         1 3WR      -0.308000
     20 N15          8.7110    -0.0130    -1.4420 nv         1 3WR      -1.051900
     21 C17          0.7500     0.4770     0.0270 ca         1 3WR      -0.146500
     22 C18          0.2410    -0.5700     0.8290 ca         1 3WR       0.004000
     23 N19         -1.1400    -0.9040     0.9080 ns         1 3WR      -0.157000
     24 N21         -3.4200    -1.0360     0.6970 ns         1 3WR      -0.170000
     25 O22         -2.2580     0.6070    -0.4380 o          1 3WR      -0.595100
     26 C23         -4.7990    -0.8620     0.3650 ca         1 3WR      -0.064000
     27 C25         -5.7360    -1.7300     0.9610 ca         1 3WR       0.160000
     28 C26         -6.6450     0.2530    -0.8180 ca         1 3WR      -0.196300
     29 F28         -5.3200    -2.6890     1.8200 f          1 3WR      -0.174000
     30 C29         -7.5610    -0.6340    -0.2120 ca         1 3WR      -0.048000
     31 F31         -6.5000     2.5150    -1.5850 f          1 3WR      -0.110667
     32 F32         -6.8650     0.9780    -3.0780 f          1 3WR      -0.110667
     33 F33         -8.4490     1.5720    -1.7140 f          1 3WR      -0.110667
     34 H1           5.2280    -2.0500    -2.9870 h5         1 3WR       0.046100
     35 H2           3.2040    -1.6630     2.1660 ha         1 3WR       0.129500
     36 H3           2.5160     1.5500    -0.6180 ha         1 3WR       0.129500
     37 H4           6.4630     2.2980     2.3950 ha         1 3WR       0.213000
     38 H5           0.7700    -2.1470     2.2210 ha         1 3WR       0.134500
     39 H6          -4.5760     0.8100    -1.0160 ha         1 3WR       0.155000
     40 H7          -7.8090    -2.3010     1.1440 ha         1 3WR       0.142000
     41 H8           4.0040     1.6690     2.3310 h4         1 3WR       0.208000
     42 H9           9.1390     0.4480    -0.6370 hn         1 3WR       0.521500
     43 H10          9.3040    -0.6310    -1.9890 hn         1 3WR       0.521500
     44 H11          0.1000     1.0920    -0.5850 ha         1 3WR       0.134500
     45 H12         -1.3290    -1.6950     1.5100 hn         1 3WR       0.152000
     46 H13         -3.2550    -1.8060     1.3320 hn         1 3WR       0.162000
     47 H14         -8.6270    -0.5680    -0.4240 ha         1 3WR       0.137000
@<TRIPOS>BOND
     1     1     2 ar  
     2     1    14 1   
     3     1    15 ar  
     4     2     3 1   
     5     2     4 ar  
     6     3     8 1   
     7     3    18 2   
     8     4    19 ar  
     9     4    20 1   
    10     5    15 ar  
    11     5    19 ar  
    12     5    34 1   
    13     6     9 ar  
    14     6    16 ar  
    15     6    35 1   
    16     7    16 ar  
    17     7    21 ar  
    18     7    36 1   
    19     8    17 2   
    20     8    37 1   
    21     9    22 ar  
    22     9    38 1   
    23    10    23 1   
    24    10    24 1   
    25    10    25 2   
    26    11    26 ar  
    27    11    28 ar  
    28    11    39 1   
    29    12    27 ar  
    30    12    30 ar  
    31    12    40 1   
    32    13    28 1   
    33    13    31 1   
    34    13    32 1   
    35    13    33 1   
    36    14    16 1   
    37    14    17 1   
    38    17    41 1   
    39    20    42 1   
    40    20    43 1   
    41    21    22 ar  
    42    21    44 1   
    43    22    23 1   
    44    23    45 1   
    45    24    26 1   
    46    24    46 1   
    47    26    27 ar  
    48    27    29 1   
    49    28    30 ar  
    50    30    47 1   
@<TRIPOS>SUBSTRUCTURE
     1 3WR         1 TEMP              0 ****  ****    0 ROOT
