@<TRIPOS>MOLECULE
3WS
   18    17     1     0     0
SMALL
bcc


@<TRIPOS>ATOM
      1 CB           7.6730    87.4460   108.8530 c3         1 3WS      -0.069600
      2 C            6.8400    88.8980   106.9380 c          1 3WS       0.937600
      3 C37          6.0490    89.3020   109.2540 c3         1 3WS      -0.069600
      4 CA           6.4700    88.1890   108.2770 c3         1 3WS       0.046200
      5 N            5.4060    87.2270   107.9970 n7         1 3WS      -0.815200
      6 O            5.9380    88.9810   106.0780 o          1 3WS      -0.835300
      7 C38          4.6530    86.7310   109.1270 c3         1 3WS       0.169100
      8 HB1          7.4110    86.9350   109.7820 hc         1 3WS       0.015200
      9 HB2          8.0420    86.6920   108.1550 hc         1 3WS       0.015200
     10 HB3          8.4900    88.1290   109.0770 hc         1 3WS       0.015200
     11 H7           5.8340    88.9100   110.2500 hc         1 3WS       0.015200
     12 H8           6.8440    90.0430   109.3620 hc         1 3WS       0.015200
     13 H9           5.1550    89.8210   108.9000 hc         1 3WS       0.015200
     14 H            4.7840    87.6550   107.3240 hn         1 3WS       0.384800
     15 H55          3.9160    86.0060   108.7740 h1         1 3WS      -0.001300
     16 H56          5.3050    86.2020   109.8250 h1         1 3WS      -0.001300
     17 H57          4.1080    87.4890   109.7060 h1         1 3WS      -0.001300
     18 OXT          7.9890    89.3720   106.8510 o          1 3WS      -0.835300
@<TRIPOS>BOND
     1     1     4 1   
     2     1     8 1   
     3     1     9 1   
     4     1    10 1   
     5     2     4 1   
     6     2     6 1   
     7     2    18 1   
     8     3     4 1   
     9     3    11 1   
    10     3    12 1   
    11     3    13 1   
    12     4     5 1   
    13     5     7 1   
    14     5    14 1   
    15     7    15 1   
    16     7    16 1   
    17     7    17 1   
@<TRIPOS>SUBSTRUCTURE
     1 3WS         1 TEMP              0 ****  ****    0 ROOT
