@<TRIPOS>MOLECULE
3WS
   18    17     1     0     0
SMALL
No Charge or Current Charge


@<TRIPOS>ATOM
      1 CB           7.6800    87.4570   108.8850 c3         1 3WS      -0.069600
      2 C            6.9230    88.9640   106.9010 c          1 3WS       0.727000
      3 C37          5.9990    89.3350   109.2370 c3         1 3WS      -0.069600
      4 CA           6.4810    88.2290   108.2540 c3         1 3WS       0.046200
      5 N            5.3570    87.2410   108.0020 n7         1 3WS      -0.870400
      6 O            6.0390    89.3370   106.1350 o          1 3WS      -0.730000
      7 C38          4.6550    86.6310   109.1510 c3         1 3WS       0.169100
      8 HB1          7.4080    86.9960   109.8410 hc         1 3WS       0.015200
      9 HB2          8.0330    86.6650   108.2130 hc         1 3WS       0.015200
     10 HB3          8.5200    88.1330   109.0840 hc         1 3WS       0.015200
     11 H7           5.7940    88.9320   110.2360 hc         1 3WS       0.015200
     12 H8           6.7710    90.1070   109.3480 hc         1 3WS       0.015200
     13 H9           5.0890    89.8230   108.8670 hc         1 3WS       0.015200
     14 H            4.6580    87.7230   107.4190 hn         1 3WS       0.440000
     15 H55          3.9110    85.9080   108.7920 h1         1 3WS      -0.001300
     16 H56          5.3510    86.0960   109.8090 h1         1 3WS      -0.001300
     17 H57          4.1250    87.3890   109.7410 h1         1 3WS      -0.001300
     18 OXT          8.1120    89.0590   106.6160 o          1 3WS      -0.730000
@<TRIPOS>BOND
     1     1     4 1   
     2     1     8 1   
     3     1     9 1   
     4     1    10 1   
     5     2     4 1   
     6     2     6 1   
     7     2    18 1   
     8     3     4 1   
     9     3    11 1   
    10     3    12 1   
    11     3    13 1   
    12     4     5 1   
    13     5     7 1   
    14     5    14 1   
    15     7    15 1   
    16     7    16 1   
    17     7    17 1   
@<TRIPOS>SUBSTRUCTURE
     1 3WS         1 TEMP              0 ****  ****    0 ROOT
