@<TRIPOS>MOLECULE
3WT
   34    33     1     0     0
SMALL
abcg2


@<TRIPOS>ATOM
      1 N3           0.3510     1.6740     0.2210 n7         1 3WT      -0.839400
      2 C20         -0.5690    -0.5550     0.7100 c3         1 3WT       0.215300
      3 C21          1.9060    -0.2980     0.0380 c3         1 3WT      -0.090700
      4 C19          0.4660     0.2580    -0.1000 c3         1 3WT       0.187500
      5 C26         -1.8220     0.2260     1.0870 c3         1 3WT      -0.209400
      6 C27         -2.5780     0.9490    -0.0350 c          1 3WT       0.733000
      7 O5          -0.8880    -1.7130    -0.0420 os         1 3WT      -0.438000
      8 O6          -2.4280     0.5570    -1.2080 o          1 3WT      -0.745000
      9 C23          2.8720     0.5050    -0.8440 c3         1 3WT      -0.077400
     10 C24          4.3460     0.1860    -0.6280 c3         1 3WT      -0.085100
     11 C22          2.0240    -1.7900    -0.2630 c3         1 3WT      -0.071100
     12 C25          0.9430     2.1170     1.4650 c3         1 3WT       0.161100
     13 C28         -1.3010    -2.8040     0.7310 c3         1 3WT       0.163900
     14 H23         -0.0900    -0.8730     1.6530 h1         1 3WT      -0.021300
     15 H24          2.2210    -0.1580     1.0820 hc         1 3WT       0.030700
     16 H29          0.1660     0.1710    -1.1480 h1         1 3WT       0.101700
     17 H30         -2.5250    -0.4680     1.5690 hc         1 3WT       0.020200
     18 H31         -1.5800     0.9490     1.8680 hc         1 3WT       0.020200
     19 H40          2.6100     0.3470    -1.8960 hc         1 3WT       0.036700
     20 H41          2.7350     1.5740    -0.6570 hc         1 3WT       0.036700
     21 H42          4.6210     0.2950     0.4240 hc         1 3WT       0.021700
     22 H43          4.6040    -0.8290    -0.9310 hc         1 3WT       0.021700
     23 H44          4.9790     0.8640    -1.2020 hc         1 3WT       0.021700
     24 H45          1.4780    -2.4030     0.4520 hc         1 3WT       0.026700
     25 H46          1.6500    -2.0280    -1.2610 hc         1 3WT       0.026700
     26 H47          3.0650    -2.1110    -0.2160 hc         1 3WT       0.026700
     27 H49          0.7300     3.1780     1.6050 h1         1 3WT       0.013033
     28 H50          0.4990     1.5880     2.3090 h1         1 3WT       0.013033
     29 H51          2.0310     1.9910     1.5420 h1         1 3WT       0.013033
     30 H52         -0.5350    -3.1140     1.4540 h1         1 3WT       0.007367
     31 H53         -2.2240    -2.6110     1.2900 h1         1 3WT       0.007367
     32 H54         -1.4880    -3.6420     0.0580 h1         1 3WT       0.007367
     33 H1           0.7030     2.2310    -0.5430 hn         1 3WT       0.411000
     34 OXT         -3.3450     1.8670     0.3340 o          1 3WT      -0.745000
@<TRIPOS>BOND
     1     1     4 1   
     2     1    12 1   
     3     1    33 1   
     4     2     4 1   
     5     2     5 1   
     6     2     7 1   
     7     2    14 1   
     8     3     4 1   
     9     3     9 1   
    10     3    11 1   
    11     3    15 1   
    12     4    16 1   
    13     5     6 1   
    14     5    17 1   
    15     5    18 1   
    16     6     8 1   
    17     6    34 1   
    18     7    13 1   
    19     9    10 1   
    20     9    19 1   
    21     9    20 1   
    22    10    21 1   
    23    10    22 1   
    24    10    23 1   
    25    11    24 1   
    26    11    25 1   
    27    11    26 1   
    28    12    27 1   
    29    12    28 1   
    30    12    29 1   
    31    13    30 1   
    32    13    31 1   
    33    13    32 1   
@<TRIPOS>SUBSTRUCTURE
     1 3WT         1 TEMP              0 ****  ****    0 ROOT
