@<TRIPOS>MOLECULE
3WT
   34    33     1     0     0
SMALL
No Charge or Current Charge


@<TRIPOS>ATOM
      1 N3           0.5570     1.7910     0.5260 n7         1 3WT      -0.839400
      2 C20         -0.6020    -0.4700     0.7850 c3         1 3WT       0.215300
      3 C21          1.9670    -0.2230    -0.0170 c3         1 3WT      -0.090700
      4 C19          0.4980     0.3810     0.0120 c3         1 3WT       0.187500
      5 C26         -1.9970     0.2210     0.9570 c3         1 3WT      -0.209400
      6 C27         -2.7110     0.3950    -0.3940 c          1 3WT       0.733000
      7 O5          -0.8100    -1.7160     0.0810 os         1 3WT      -0.438000
      8 O6          -3.5110    -0.4610    -0.7440 o          1 3WT      -0.745000
      9 C23          2.9550     0.6830    -0.8320 c3         1 3WT      -0.077400
     10 C24          4.4450     0.2770    -0.7690 c3         1 3WT      -0.085100
     11 C22          2.0340    -1.6900    -0.5280 c3         1 3WT      -0.071100
     12 C25          0.9690     2.0020     1.9300 c3         1 3WT       0.161100
     13 C28         -1.4230    -2.7830     0.8290 c3         1 3WT       0.163900
     14 H23         -0.2060    -0.6780     1.7890 h1         1 3WT      -0.021300
     15 H24          2.3330    -0.2540     1.0160 hc         1 3WT       0.030700
     16 H29          0.1620     0.4110    -1.0360 h1         1 3WT       0.101700
     17 H30         -2.5870    -0.4200     1.6220 hc         1 3WT       0.020200
     18 H31         -1.8050     1.2010     1.4060 hc         1 3WT       0.020200
     19 H40          2.6380     0.7120    -1.8830 hc         1 3WT       0.036700
     20 H41          2.9080     1.7150    -0.4680 hc         1 3WT       0.036700
     21 H42          4.7640     0.1240     0.2690 hc         1 3WT       0.021700
     22 H43          4.6390    -0.6400    -1.3370 hc         1 3WT       0.021700
     23 H44          5.0680     1.0680    -1.2030 hc         1 3WT       0.021700
     24 H45          1.5550    -2.3760     0.1790 hc         1 3WT       0.026700
     25 H46          1.5490    -1.7890    -1.5070 hc         1 3WT       0.026700
     26 H47          3.0650    -2.0450    -0.6220 hc         1 3WT       0.026700
     27 H49          0.8910     3.0650     2.1900 h1         1 3WT       0.013033
     28 H50          0.3300     1.4380     2.6220 h1         1 3WT       0.013033
     29 H51          2.0100     1.6950     2.0910 h1         1 3WT       0.013033
     30 H52         -0.8690    -2.9750     1.7570 h1         1 3WT       0.007367
     31 H53         -2.4640    -2.5500     1.0830 h1         1 3WT       0.007367
     32 H54         -1.4220    -3.7060     0.2360 h1         1 3WT       0.007367
     33 H1           1.1940     2.3230    -0.0760 hn         1 3WT       0.411000
     34 OXT         -2.4940     1.4060    -1.0460 o          1 3WT      -0.745000
@<TRIPOS>BOND
     1     1     4 1   
     2     1    12 1   
     3     1    33 1   
     4     2     4 1   
     5     2     5 1   
     6     2     7 1   
     7     2    14 1   
     8     3     4 1   
     9     3     9 1   
    10     3    11 1   
    11     3    15 1   
    12     4    16 1   
    13     5     6 1   
    14     5    17 1   
    15     5    18 1   
    16     6     8 1   
    17     6    34 1   
    18     7    13 1   
    19     9    10 1   
    20     9    19 1   
    21     9    20 1   
    22    10    21 1   
    23    10    22 1   
    24    10    23 1   
    25    11    24 1   
    26    11    25 1   
    27    11    26 1   
    28    12    27 1   
    29    12    28 1   
    30    12    29 1   
    31    13    30 1   
    32    13    31 1   
    33    13    32 1   
@<TRIPOS>SUBSTRUCTURE
     1 3WT         1 TEMP              0 ****  ****    0 ROOT
