@<TRIPOS>MOLECULE
3WU
   29    29     1     0     0
SMALL
No Charge or Current Charge


@<TRIPOS>ATOM
      1 C4           3.4630    -0.1580     0.6430 c5         1 3WU      -0.084400
      2 C6          -1.4000    -0.0800    -0.7430 c3         1 3WU      -0.218700
      3 C9          -1.0770     3.0360    -0.3820 c3         1 3WU       0.164900
      4 C8          -1.7050    -1.0420     0.4270 c          1 3WU       0.718000
      5 N1           1.5450    -1.1750    -0.4000 n7         1 3WU      -0.870400
      6 C2           1.1030     0.0950     0.2090 c5         1 3WU       0.171500
      7 C3           2.4230     0.9050     0.1780 c5         1 3WU      -0.075400
      8 C1           2.7610    -1.5220     0.3570 c5         1 3WU       0.156800
      9 C5          -0.1140     0.7850    -0.5030 c3         1 3WU       0.205300
     10 O1          -0.4610     1.9320     0.3090 os         1 3WU      -0.449000
     11 O2          -2.7070    -0.8290     1.0940 o          1 3WU      -0.736000
     12 H13          4.4070    -0.0600     0.0960 hc         1 3WU       0.024700
     13 H14          3.6950    -0.0570     1.7100 hc         1 3WU       0.024700
     14 H16         -1.2380    -0.1260    -2.9280 hc         1 3WU       0.015033
     15 H17         -0.5550    -1.5630    -2.1400 hc         1 3WU       0.015033
     16 H18         -2.3140    -1.3670    -2.2590 hc         1 3WU       0.015033
     17 H19         -2.2440     0.6140    -0.8010 hc         1 3WU       0.034700
     18 H20         -1.2490     3.8670     0.3140 h1         1 3WU       0.010033
     19 H21         -0.4260     3.3990    -1.1880 h1         1 3WU       0.010033
     20 H22         -2.0440     2.7570    -0.8160 h1         1 3WU       0.010033
     21 H32          0.8090    -0.0810     1.2560 h1         1 3WU       0.061700
     22 H33          2.3950     1.7810     0.8360 hc         1 3WU       0.035200
     23 H34          2.6470     1.2620    -0.8340 hc         1 3WU       0.035200
     24 H35          3.4010    -2.2160    -0.2050 h1         1 3WU       0.021200
     25 H36          2.4850    -2.0100     1.3020 h1         1 3WU       0.021200
     26 H37          0.2430     1.1360    -1.4810 h1         1 3WU       0.006700
     27 OXT         -1.0040    -2.0340     0.5770 o          1 3WU      -0.736000
     28 H2           0.7960    -1.8680    -0.2130 hn         1 3WU       0.466000
     29 C7          -1.3700    -0.8320    -2.0990 c3         1 3WU      -0.054100
@<TRIPOS>BOND
     1     1     7 1   
     2     1     8 1   
     3     1    12 1   
     4     1    13 1   
     5     2     4 1   
     6     2     9 1   
     7     2    17 1   
     8     2    29 1   
     9     3    10 1   
    10     3    18 1   
    11     3    19 1   
    12     3    20 1   
    13     4    11 1   
    14     4    27 1   
    15     5     6 1   
    16     5     8 1   
    17     5    28 1   
    18     6     7 1   
    19     6     9 1   
    20     6    21 1   
    21     7    22 1   
    22     7    23 1   
    23     8    24 1   
    24     8    25 1   
    25     9    10 1   
    26     9    26 1   
    27    14    29 1   
    28    15    29 1   
    29    16    29 1   
@<TRIPOS>SUBSTRUCTURE
     1 3WU         1 TEMP              0 ****  ****    0 ROOT
