@<TRIPOS>MOLECULE
3WU
   29    29     1     0     0
SMALL
abcg2


@<TRIPOS>ATOM
      1 C4           3.4200    -0.1200     0.4250 c5         1 3WU      -0.084400
      2 C6          -1.3610    -0.0930    -0.7830 c3         1 3WU      -0.218700
      3 C9          -1.0240     2.9500    -0.4710 c3         1 3WU       0.164900
      4 C8          -1.7380    -0.9850     0.4180 c          1 3WU       0.718000
      5 N1           1.4630    -1.1550    -0.3160 n7         1 3WU      -0.870400
      6 C2           0.9900     0.0670     0.3160 c5         1 3WU       0.171500
      7 C3           2.2710     0.9070     0.4540 c5         1 3WU      -0.075400
      8 C1           2.7070    -1.4730     0.3620 c5         1 3WU       0.156800
      9 C5          -0.1100     0.7660    -0.4780 c3         1 3WU       0.205300
     10 O1          -0.4220     1.9250     0.2700 os         1 3WU      -0.449000
     11 O2          -2.3660    -0.4380     1.3460 o          1 3WU      -0.736000
     12 H13          4.0450     0.0220    -0.4570 hc         1 3WU       0.024700
     13 H14          4.0730    -0.0500     1.2950 hc         1 3WU       0.024700
     14 H16         -1.0690    -0.1680    -2.9240 hc         1 3WU       0.015033
     15 H17         -0.3390    -1.5250    -2.0800 hc         1 3WU       0.015033
     16 H18         -2.0840    -1.4640    -2.3030 hc         1 3WU       0.015033
     17 H19         -2.1890     0.6090    -0.9270 hc         1 3WU       0.034700
     18 H20         -1.1280     3.8180     0.1820 h1         1 3WU       0.010033
     19 H21         -0.4180     3.2420    -1.3370 h1         1 3WU       0.010033
     20 H22         -2.0230     2.6880    -0.8390 h1         1 3WU       0.010033
     21 H32          0.5990    -0.1340     1.3290 h1         1 3WU       0.061700
     22 H33          2.2630     1.4960     1.3700 hc         1 3WU       0.035200
     23 H34          2.3620     1.6110    -0.3770 hc         1 3WU       0.035200
     24 H35          3.2750    -2.2280    -0.1850 h1         1 3WU       0.021200
     25 H36          2.5480    -1.8560     1.3820 h1         1 3WU       0.021200
     26 H37          0.3250     1.0690    -1.4460 h1         1 3WU       0.006700
     27 OXT         -1.3770    -2.1820     0.3850 o          1 3WU      -0.736000
     28 H2           0.7730    -1.8890    -0.2040 hn         1 3WU       0.466000
     29 C7          -1.2000    -0.8620    -2.0900 c3         1 3WU      -0.054100
@<TRIPOS>BOND
     1     1     7 1   
     2     1     8 1   
     3     1    12 1   
     4     1    13 1   
     5     2     4 1   
     6     2     9 1   
     7     2    17 1   
     8     2    29 1   
     9     3    10 1   
    10     3    18 1   
    11     3    19 1   
    12     3    20 1   
    13     4    11 1   
    14     4    27 1   
    15     5     6 1   
    16     5     8 1   
    17     5    28 1   
    18     6     7 1   
    19     6     9 1   
    20     6    21 1   
    21     7    22 1   
    22     7    23 1   
    23     8    24 1   
    24     8    25 1   
    25     9    10 1   
    26     9    26 1   
    27    14    29 1   
    28    15    29 1   
    29    16    29 1   
@<TRIPOS>SUBSTRUCTURE
     1 3WU         1 TEMP              0 ****  ****    0 ROOT
