@<TRIPOS>MOLECULE
3WV
  113   114     1     0     0
SMALL
bcc


@<TRIPOS>ATOM
      1 C36          9.0610     0.7310    -1.1870 c3         1 3WV      -0.097100
      2 C35          6.9010     1.3610    -0.0950 c          1 3WV       0.666100
      3 C37          8.4670     3.1290    -0.7510 c3         1 3WV      -0.097100
      4 C34          7.9280     1.7580    -1.1720 c3         1 3WV       0.110200
      5 N5           7.2380     1.8530    -2.4570 n7         1 3WV      -0.826200
      6 O8           7.2490     0.8520     0.9630 o          1 3WV      -0.629100
      7 C38          7.9350     2.5460    -3.5250 c3         1 3WV       0.155100
      8 N4           5.6330     1.6700    -0.3950 ns         1 3WV      -0.548900
      9 C30          4.5070     1.4060     0.4670 c3         1 3WV       0.039700
     10 C29          3.7370     0.2210    -0.1230 c          1 3WV       0.654100
     11 O7           3.2550     0.3550    -1.2430 o          1 3WV      -0.618100
     12 C31          3.5830     2.6280     0.5810 c3         1 3WV      -0.066700
     13 C33          2.3580     2.3010     1.4330 c3         1 3WV      -0.091100
     14 C32          4.3380     3.8130     1.1710 c3         1 3WV      -0.091100
     15 N3           3.6290    -0.9090     0.6030 n          1 3WV      -0.461800
     16 C20          1.4940    -2.0530     0.9690 c3         1 3WV       0.136100
     17 C21          3.5530    -3.3070    -0.0870 c3         1 3WV      -0.056700
     18 C19          2.7750    -1.9920     0.1060 c3         1 3WV       0.115700
     19 C26          0.2380    -2.4620     0.1830 c3         1 3WV      -0.190400
     20 C27         -0.9900    -1.6260     0.5150 c          1 3WV       0.661100
     21 O5           1.7250    -2.8860     2.0810 os         1 3WV      -0.422600
     22 O6          -0.9070    -0.5800     1.1490 o          1 3WV      -0.598100
     23 C23          4.7230    -3.1310    -1.0760 c3         1 3WV      -0.073400
     24 C24          6.0380    -2.6240    -0.4970 c3         1 3WV      -0.086100
     25 C22          2.6310    -4.4180    -0.5890 c3         1 3WV      -0.087100
     26 C25          4.2020    -1.0400     1.9350 c3         1 3WV       0.080300
     27 C28          0.7990    -2.7370     3.1270 c3         1 3WV       0.121700
     28 C4          -3.4740    -2.6730    -1.7700 c5         1 3WV      -0.094400
     29 C6          -5.2180    -0.6640     1.9250 c3         1 3WV      -0.144700
     30 C8          -4.9690     0.7960     1.5910 c          1 3WV       0.665100
     31 N1          -2.1700    -2.0830     0.0580 n          1 3WV      -0.476800
     32 C2          -3.4050    -1.3180     0.2510 c5         1 3WV       0.090700
     33 C3          -4.3580    -1.8610    -0.8270 c5         1 3WV      -0.087400
     34 C1          -2.3710    -3.1930    -0.8620 c5         1 3WV       0.102000
     35 C5          -3.9360    -1.4730     1.6820 c3         1 3WV       0.144100
     36 O1          -4.2210    -2.8270     1.9560 os         1 3WV      -0.422600
     37 O2          -4.1620     1.4640     2.2290 o          1 3WV      -0.613100
     38 N2          -5.6570     1.2750     0.5500 ns         1 3WV      -0.524900
     39 C10         -5.6000     2.6560     0.1450 c3         1 3WV      -0.037300
     40 C11         -6.4310     3.5960     1.0590 c          1 3WV       0.928600
     41 O4          -7.1200     3.0770     1.9500 o          1 3WV      -0.824300
     42 C12         -6.0530     2.7850    -1.3110 c3         1 3WV      -0.042100
     43 C13         -5.3280     1.8650    -2.2580 ca         1 3WV      -0.050300
     44 C18         -6.0390     1.0090    -3.0950 ca         1 3WV      -0.134000
     45 C14         -3.9350     1.8490    -2.3270 ca         1 3WV      -0.134000
     46 C17         -5.3830     0.1660    -3.9850 ca         1 3WV      -0.137500
     47 C15         -3.2760     1.0060    -3.2090 ca         1 3WV      -0.137500
     48 C16         -3.9980     0.1630    -4.0450 ca         1 3WV      -0.158000
     49 O3          -6.3220     4.8100     0.7910 o          1 3WV      -0.824300
     50 H1           8.6840    -0.2750    -1.3830 hc         1 3WV       0.044867
     51 H2           9.7790     0.9770    -1.9710 hc         1 3WV       0.044867
     52 H3           9.6030     0.7070    -0.2430 hc         1 3WV       0.044867
     53 H7           8.8200     3.0910     0.2790 hc         1 3WV       0.044867
     54 H8           9.3120     3.4300    -1.3710 hc         1 3WV       0.044867
     55 H9           7.6980     3.8990    -0.8220 hc         1 3WV       0.044867
     56 H25          7.0160     0.9160    -2.7760 hn         1 3WV       0.364800
     57 H55          7.3740     2.4070    -4.4480 h1         1 3WV       0.030700
     58 H56          7.9740     3.6170    -3.3300 h1         1 3WV       0.030700
     59 H57          8.9600     2.1990    -3.7060 h1         1 3WV       0.030700
     60 H39          5.4790     2.0220    -1.3320 hn         1 3WV       0.351500
     61 H38          4.9030     1.1960     1.4580 h1         1 3WV       0.087700
     62 H48          3.2430     2.8930    -0.4250 hc         1 3WV       0.068700
     63 H4           2.6510     1.9800     2.4360 hc         1 3WV       0.039367
     64 H5           1.7280     3.1840     1.5430 hc         1 3WV       0.039367
     65 H6           1.7360     1.5170     0.9990 hc         1 3WV       0.039367
     66 H10          5.2060     4.0890     0.5720 hc         1 3WV       0.039367
     67 H11          3.6890     4.6870     1.2320 hc         1 3WV       0.039367
     68 H12          4.6890     3.5890     2.1820 hc         1 3WV       0.039367
     69 H23          1.3210    -1.0260     1.3160 h1         1 3WV       0.076700
     70 H24          3.9640    -3.6380     0.8720 hc         1 3WV       0.059700
     71 H29          2.4580    -1.6700    -0.8850 h1         1 3WV       0.087700
     72 H30          0.4170    -2.3470    -0.8910 hc         1 3WV       0.066200
     73 H31          0.0240    -3.5230     0.3280 hc         1 3WV       0.066200
     74 H40          4.9230    -4.1080    -1.5260 hc         1 3WV       0.036200
     75 H41          4.4060    -2.4880    -1.9040 hc         1 3WV       0.036200
     76 H42          6.8260    -2.6640    -1.2520 hc         1 3WV       0.031367
     77 H43          5.9850    -1.5970    -0.1470 hc         1 3WV       0.031367
     78 H44          6.3610    -3.2420     0.3430 hc         1 3WV       0.031367
     79 H45          3.2040    -5.3320    -0.7480 hc         1 3WV       0.033700
     80 H46          1.8420    -4.6540     0.1210 hc         1 3WV       0.033700
     81 H47          2.1660    -4.1540    -1.5420 hc         1 3WV       0.033700
     82 H49          3.6900    -0.4160     2.6700 h1         1 3WV       0.048033
     83 H50          4.1090    -2.0690     2.2630 h1         1 3WV       0.048033
     84 H51          5.2610    -0.7930     1.9420 h1         1 3WV       0.048033
     85 H52          1.1510    -3.3370     3.9650 h1         1 3WV       0.032700
     86 H53          0.7120    -1.6960     3.4560 h1         1 3WV       0.032700
     87 H54         -0.2030    -3.0910     2.8580 h1         1 3WV       0.032700
     88 H13         -4.0130    -3.4770    -2.2710 hc         1 3WV       0.049200
     89 H14         -3.0410    -2.0300    -2.5370 hc         1 3WV       0.049200
     90 H19         -6.0060    -1.0580     1.2760 hc         1 3WV       0.050700
     91 H32         -3.1900    -0.2630     0.0670 h1         1 3WV       0.098700
     92 H33         -4.8650    -1.0450    -1.3420 hc         1 3WV       0.064700
     93 H34         -5.1200    -2.5040    -0.3840 hc         1 3WV       0.064700
     94 H35         -2.6880    -4.0920    -0.3250 h1         1 3WV       0.039700
     95 H36         -1.4630    -3.4350    -1.4110 h1         1 3WV       0.039700
     96 H37         -3.1690    -1.0990     2.3720 h1         1 3WV       0.076700
     97 H15         -6.3640     0.6860     0.1410 hn         1 3WV       0.292500
     98 H58         -4.5570     2.9780     0.2100 h1         1 3WV       0.063700
     99 H59         -7.1290     2.5950    -1.3820 hc         1 3WV       0.061700
    100 H60         -5.9060     3.8240    -1.6110 hc         1 3WV       0.061700
    101 H27         -7.1220     1.0020    -3.0510 ha         1 3WV       0.135500
    102 H61         -3.3540     2.5020    -1.6860 ha         1 3WV       0.135500
    103 H63         -5.9580    -0.4890    -4.6270 ha         1 3WV       0.118500
    104 H62         -2.1930     1.0080    -3.2450 ha         1 3WV       0.118500
    105 H28         -3.4810    -0.4930    -4.7350 ha         1 3WV       0.113000
    106 C9          -3.2770    -3.5160     2.7360 c3         1 3WV       0.137700
    107 C7          -5.6880    -0.7800     3.3730 c3         1 3WV      -0.075100
    108 H16         -6.5770    -0.1720     3.5430 hc         1 3WV       0.041033
    109 H20         -2.9980    -2.9580     3.6360 h1         1 3WV       0.019700
    110 H21         -3.7290    -4.4580     3.0470 h1         1 3WV       0.019700
    111 H22         -2.3590    -3.7500     2.1860 h1         1 3WV       0.019700
    112 H17         -5.9380    -1.8110     3.6180 hc         1 3WV       0.041033
    113 H18         -4.9150    -0.4430     4.0650 hc         1 3WV       0.041033
@<TRIPOS>BOND
     1     1     4 1   
     2     1    50 1   
     3     1    51 1   
     4     1    52 1   
     5     2     4 1   
     6     2     6 2   
     7     2     8 1   
     8     3     4 1   
     9     3    53 1   
    10     3    54 1   
    11     3    55 1   
    12     4     5 1   
    13     5     7 1   
    14     5    56 1   
    15     7    57 1   
    16     7    58 1   
    17     7    59 1   
    18     8     9 1   
    19     8    60 1   
    20     9    10 1   
    21     9    12 1   
    22     9    61 1   
    23    10    11 2   
    24    10    15 1   
    25    12    13 1   
    26    12    14 1   
    27    12    62 1   
    28    13    63 1   
    29    13    64 1   
    30    13    65 1   
    31    14    66 1   
    32    14    67 1   
    33    14    68 1   
    34    15    18 1   
    35    15    26 1   
    36    16    18 1   
    37    16    19 1   
    38    16    21 1   
    39    16    69 1   
    40    17    18 1   
    41    17    23 1   
    42    17    25 1   
    43    17    70 1   
    44    18    71 1   
    45    19    20 1   
    46    19    72 1   
    47    19    73 1   
    48    20    22 2   
    49    20    31 1   
    50    21    27 1   
    51    23    24 1   
    52    23    74 1   
    53    23    75 1   
    54    24    76 1   
    55    24    77 1   
    56    24    78 1   
    57    25    79 1   
    58    25    80 1   
    59    25    81 1   
    60    26    82 1   
    61    26    83 1   
    62    26    84 1   
    63    27    85 1   
    64    27    86 1   
    65    27    87 1   
    66    28    33 1   
    67    28    34 1   
    68    28    88 1   
    69    28    89 1   
    70    29    30 1   
    71    29    35 1   
    72    29    90 1   
    73    29   107 1   
    74    30    37 2   
    75    30    38 1   
    76    31    32 1   
    77    31    34 1   
    78    32    33 1   
    79    32    35 1   
    80    32    91 1   
    81    33    92 1   
    82    33    93 1   
    83    34    94 1   
    84    34    95 1   
    85    35    36 1   
    86    35    96 1   
    87    36   106 1   
    88    38    39 1   
    89    38    97 1   
    90    39    40 1   
    91    39    42 1   
    92    39    98 1   
    93    40    41 1   
    94    40    49 1   
    95    42    43 1   
    96    42    99 1   
    97    42   100 1   
    98    43    44 ar  
    99    43    45 ar  
   100    44    46 ar  
   101    44   101 1   
   102    45    47 ar  
   103    45   102 1   
   104    46    48 ar  
   105    46   103 1   
   106    47    48 ar  
   107    47   104 1   
   108    48   105 1   
   109   106   109 1   
   110   106   110 1   
   111   106   111 1   
   112   107   108 1   
   113   107   112 1   
   114   107   113 1   
@<TRIPOS>SUBSTRUCTURE
     1 3WV         1 TEMP              0 ****  ****    0 ROOT
