@<TRIPOS>MOLECULE
3WV
  113   114     1     0     0
SMALL
No Charge or Current Charge


@<TRIPOS>ATOM
      1 C36          8.7650     1.8850    -1.9050 c3         1 3WV      -0.097100
      2 C35          6.6210     2.0550    -0.5260 c          1 3WV       0.599100
      3 C37          7.5040     4.0980    -1.7290 c3         1 3WV      -0.097100
      4 C34          7.3680     2.5550    -1.8290 c3         1 3WV       0.110200
      5 N5           6.6050     2.1820    -3.0820 n7         1 3WV      -0.881400
      6 O8           7.1430     2.0010     0.5830 o          1 3WV      -0.629100
      7 C38          7.0160     2.7720    -4.3790 c3         1 3WV       0.155100
      8 N4           5.3310     1.6260    -0.7410 ns         1 3WV      -0.481900
      9 C30          4.3990     1.1090     0.2860 c3         1 3WV       0.039700
     10 C29          3.6690    -0.1460    -0.2990 c          1 3WV       0.587100
     11 O7           3.3010    -0.1420    -1.4700 o          1 3WV      -0.618100
     12 C31          3.3920     2.2220     0.7340 c3         1 3WV      -0.066700
     13 C33          2.3520     1.7300     1.7700 c3         1 3WV      -0.091100
     14 C32          4.1010     3.4960     1.2590 c3         1 3WV      -0.091100
     15 N3           3.3990    -1.2640     0.5390 n          1 3WV      -0.394800
     16 C20          1.2240    -2.4020     1.0090 c3         1 3WV       0.159300
     17 C21          3.2230    -3.7360    -0.1930 c3         1 3WV      -0.056700
     18 C19          2.4930    -2.3620     0.0810 c3         1 3WV       0.115700
     19 C26         -0.1000    -2.7640     0.2740 c3         1 3WV      -0.190400
     20 C27         -1.3330    -1.9310     0.6660 c          1 3WV       0.594100
     21 O5           1.4450    -3.3330     2.0950 os         1 3WV      -0.469000
     22 O6          -1.2400    -0.9880     1.4370 o          1 3WV      -0.598100
     23 C23          4.4160    -3.6340    -1.2010 c3         1 3WV      -0.073400
     24 C24          5.7340    -3.0330    -0.6600 c3         1 3WV      -0.086100
     25 C22          2.2440    -4.8310    -0.6970 c3         1 3WV      -0.087100
     26 C25          4.0540    -1.4210     1.8630 c3         1 3WV       0.080300
     27 C28          0.5010    -3.2800     3.1810 c3         1 3WV       0.144900
     28 C4          -3.9790    -2.6980    -1.7250 c5         1 3WV      -0.094400
     29 C6          -5.4680    -0.2930     1.9990 c3         1 3WV      -0.144700
     30 C8          -5.0170     1.0860     1.4870 c          1 3WV       0.598100
     31 N1          -2.5890    -2.3000     0.1340 n          1 3WV      -0.409800
     32 C2          -3.8130    -1.4820     0.3610 c5         1 3WV       0.090700
     33 C3          -4.8530    -2.2090    -0.5510 c5         1 3WV      -0.087400
     34 C1          -2.7470    -3.2640    -0.9820 c5         1 3WV       0.102000
     35 C5          -4.3070    -1.3160     1.8520 c3         1 3WV       0.167300
     36 O1          -4.7880    -2.5720     2.3960 os         1 3WV      -0.469000
     37 O2          -4.1350     1.7330     2.0340 o          1 3WV      -0.613100
     38 N2          -5.6870     1.5430     0.3710 ns         1 3WV      -0.457900
     39 C10         -5.4300     2.8310    -0.3220 c3         1 3WV      -0.037300
     40 C11         -6.7710     3.5860    -0.5700 c          1 3WV       0.718000
     41 O4          -7.6840     2.9900    -1.1270 o          1 3WV      -0.719000
     42 C12         -4.6450     2.6400    -1.6480 c3         1 3WV      -0.042100
     43 C13         -3.2750     1.9730    -1.5120 ca         1 3WV      -0.050300
     44 C18         -2.9320     0.8910    -2.3480 ca         1 3WV      -0.116000
     45 C14         -2.3190     2.4580    -0.5960 ca         1 3WV      -0.116000
     46 C17         -1.6630     0.2910    -2.2560 ca         1 3WV      -0.119500
     47 C15         -1.0500     1.8600    -0.5060 ca         1 3WV      -0.119500
     48 C16         -0.7210     0.7760    -1.3350 ca         1 3WV      -0.140000
     49 O3          -6.8840     4.7220    -0.1290 o          1 3WV      -0.719000
     50 H1           8.6710     0.7940    -1.9780 hc         1 3WV       0.044867
     51 H2           9.3380     2.2390    -2.7690 hc         1 3WV       0.044867
     52 H3           9.3540     2.1120    -1.0080 hc         1 3WV       0.044867
     53 H7           7.9730     4.3820    -0.7790 hc         1 3WV       0.044867
     54 H8           8.1260     4.5050    -2.5340 hc         1 3WV       0.044867
     55 H9           6.5190     4.5780    -1.7740 hc         1 3WV       0.044867
     56 H25          6.6470     1.1580    -3.1860 hn         1 3WV       0.420000
     57 H55          6.3810     2.3860    -5.1880 h1         1 3WV       0.030700
     58 H56          6.9120     3.8650    -4.3750 h1         1 3WV       0.030700
     59 H57          8.0560     2.5220    -4.6250 h1         1 3WV       0.030700
     60 H39          5.0170     1.6940    -1.7050 hn         1 3WV       0.351500
     61 H38          4.9890     0.8050     1.1570 h1         1 3WV       0.087700
     62 H48          2.8260     2.5190    -0.1580 hc         1 3WV       0.068700
     63 H4           2.8410     1.4220     2.7010 hc         1 3WV       0.039367
     64 H5           1.6450     2.5320     2.0130 hc         1 3WV       0.039367
     65 H6           1.7670     0.8880     1.3830 hc         1 3WV       0.039367
     66 H10          4.7160     3.9610     0.4790 hc         1 3WV       0.039367
     67 H11          3.3670     4.2430     1.5830 hc         1 3WV       0.039367
     68 H12          4.7470     3.2590     2.1130 hc         1 3WV       0.039367
     69 H23          1.1230    -1.3850     1.4100 h1         1 3WV       0.076700
     70 H24          3.6310    -4.1040     0.7560 hc         1 3WV       0.059700
     71 H29          2.1020    -2.0640    -0.8980 h1         1 3WV       0.087700
     72 H30          0.0100    -2.6540    -0.8090 hc         1 3WV       0.066200
     73 H31         -0.3570    -3.8260     0.3510 hc         1 3WV       0.066200
     74 H40          4.6650    -4.6420    -1.5550 hc         1 3WV       0.036200
     75 H41          4.1000    -3.0730    -2.0890 hc         1 3WV       0.036200
     76 H42          6.5560    -3.2570    -1.3510 hc         1 3WV       0.031367
     77 H43          5.6830    -1.9450    -0.5670 hc         1 3WV       0.031367
     78 H44          5.9890    -3.4610     0.3160 hc         1 3WV       0.031367
     79 H45          2.7800    -5.7540    -0.9500 hc         1 3WV       0.033700
     80 H46          1.5160    -5.1020     0.0750 hc         1 3WV       0.033700
     81 H47          1.7040    -4.4960    -1.5910 hc         1 3WV       0.033700
     82 H49          3.6590    -0.6830     2.5700 h1         1 3WV       0.048033
     83 H50          3.8710    -2.4210     2.2740 h1         1 3WV       0.048033
     84 H51          5.1380    -1.2890     1.7650 h1         1 3WV       0.048033
     85 H52          0.8090    -3.9610     3.9840 h1         1 3WV       0.032700
     86 H53          0.4420    -2.2660     3.5980 h1         1 3WV       0.032700
     87 H54         -0.5020    -3.5810     2.8520 h1         1 3WV       0.032700
     88 H13         -4.4790    -3.4530    -2.3410 hc         1 3WV       0.049200
     89 H14         -3.6990    -1.8710    -2.3860 hc         1 3WV       0.049200
     90 H19         -6.2980    -0.6380     1.3710 hc         1 3WV       0.050700
     91 H32         -3.6140    -0.4790    -0.0360 h1         1 3WV       0.098700
     92 H33         -5.6570    -1.5420    -0.8800 hc         1 3WV       0.064700
     93 H34         -5.3240    -3.0600    -0.0470 hc         1 3WV       0.064700
     94 H35         -2.9400    -4.2730    -0.5920 h1         1 3WV       0.039700
     95 H36         -1.8800    -3.3100    -1.6510 h1         1 3WV       0.039700
     96 H37         -3.4730    -0.9410     2.4600 h1         1 3WV       0.076700
     97 H15         -6.4310     0.9550     0.0120 hn         1 3WV       0.292500
     98 H58         -4.8360     3.4710     0.3420 h1         1 3WV       0.063700
     99 H59         -5.2740     2.0670    -2.3410 hc         1 3WV       0.061700
    100 H60         -4.5130     3.6240    -2.1130 hc         1 3WV       0.061700
    101 H27         -3.6490     0.5140    -3.0740 ha         1 3WV       0.117500
    102 H61         -2.5550     3.3030     0.0460 ha         1 3WV       0.117500
    103 H63         -1.4100    -0.5470    -2.9020 ha         1 3WV       0.100500
    104 H62         -0.3220     2.2380     0.2070 ha         1 3WV       0.100500
    105 H28          0.2610     0.3140    -1.2640 ha         1 3WV       0.095000
    106 C9          -3.7970    -3.5690     2.7080 c3         1 3WV       0.160900
    107 C7          -6.0070    -0.1740     3.4490 c3         1 3WV      -0.075100
    108 H16         -6.7890     0.5940     3.5060 hc         1 3WV       0.041033
    109 H20         -2.9660    -3.1320     3.2770 h1         1 3WV       0.019700
    110 H21         -4.2440    -4.3650     3.3150 h1         1 3WV       0.019700
    111 H22         -3.3990    -4.0350     1.8000 h1         1 3WV       0.019700
    112 H17         -6.4440    -1.1200     3.7900 hc         1 3WV       0.041033
    113 H18         -5.2050     0.1040     4.1440 hc         1 3WV       0.041033
@<TRIPOS>BOND
     1     1     4 1   
     2     1    50 1   
     3     1    51 1   
     4     1    52 1   
     5     2     4 1   
     6     2     6 2   
     7     2     8 1   
     8     3     4 1   
     9     3    53 1   
    10     3    54 1   
    11     3    55 1   
    12     4     5 1   
    13     5     7 1   
    14     5    56 1   
    15     7    57 1   
    16     7    58 1   
    17     7    59 1   
    18     8     9 1   
    19     8    60 1   
    20     9    10 1   
    21     9    12 1   
    22     9    61 1   
    23    10    11 2   
    24    10    15 1   
    25    12    13 1   
    26    12    14 1   
    27    12    62 1   
    28    13    63 1   
    29    13    64 1   
    30    13    65 1   
    31    14    66 1   
    32    14    67 1   
    33    14    68 1   
    34    15    18 1   
    35    15    26 1   
    36    16    18 1   
    37    16    19 1   
    38    16    21 1   
    39    16    69 1   
    40    17    18 1   
    41    17    23 1   
    42    17    25 1   
    43    17    70 1   
    44    18    71 1   
    45    19    20 1   
    46    19    72 1   
    47    19    73 1   
    48    20    22 2   
    49    20    31 1   
    50    21    27 1   
    51    23    24 1   
    52    23    74 1   
    53    23    75 1   
    54    24    76 1   
    55    24    77 1   
    56    24    78 1   
    57    25    79 1   
    58    25    80 1   
    59    25    81 1   
    60    26    82 1   
    61    26    83 1   
    62    26    84 1   
    63    27    85 1   
    64    27    86 1   
    65    27    87 1   
    66    28    33 1   
    67    28    34 1   
    68    28    88 1   
    69    28    89 1   
    70    29    30 1   
    71    29    35 1   
    72    29    90 1   
    73    29   107 1   
    74    30    37 2   
    75    30    38 1   
    76    31    32 1   
    77    31    34 1   
    78    32    33 1   
    79    32    35 1   
    80    32    91 1   
    81    33    92 1   
    82    33    93 1   
    83    34    94 1   
    84    34    95 1   
    85    35    36 1   
    86    35    96 1   
    87    36   106 1   
    88    38    39 1   
    89    38    97 1   
    90    39    40 1   
    91    39    42 1   
    92    39    98 1   
    93    40    41 1   
    94    40    49 1   
    95    42    43 1   
    96    42    99 1   
    97    42   100 1   
    98    43    44 ar  
    99    43    45 ar  
   100    44    46 ar  
   101    44   101 1   
   102    45    47 ar  
   103    45   102 1   
   104    46    48 ar  
   105    46   103 1   
   106    47    48 ar  
   107    47   104 1   
   108    48   105 1   
   109   106   109 1   
   110   106   110 1   
   111   106   111 1   
   112   107   108 1   
   113   107   112 1   
   114   107   113 1   
@<TRIPOS>SUBSTRUCTURE
     1 3WV         1 TEMP              0 ****  ****    0 ROOT
