@<TRIPOS>MOLECULE
3WW
   26    27     1     0     0
SMALL
bcc


@<TRIPOS>ATOM
      1 N6           2.3740     1.4090     0.0740 nc         1 3WW      -0.639000
      2 N2           0.1240    -1.1950    -1.2910 n8         1 3WW      -0.900800
      3 C29          0.4110     0.0520    -0.6260 c3         1 3WW       0.144200
      4 C30         -0.4100     0.1740     0.6680 c3         1 3WW      -0.021100
      5 C31         -1.8910     0.1530     0.4180 ca         1 3WW      -0.069300
      6 C32          1.8690     0.2810    -0.3070 cd         1 3WW       0.392700
      7 C33         -2.6190    -1.0310     0.4890 ca         1 3WW      -0.116000
      8 C34         -3.9860    -1.0420     0.2410 ca         1 3WW      -0.129500
      9 C35         -4.6440     0.1350    -0.0890 ca         1 3WW      -0.128000
     10 C36         -3.9280     1.3230    -0.1650 ca         1 3WW      -0.129500
     11 C37         -2.5620     1.3280     0.0870 ca         1 3WW      -0.116000
     12 S1           3.0160    -1.0100    -0.3960 ss         1 3WW      -0.213300
     13 C38          4.2440     0.0650     0.1230 cd         1 3WW      -0.198400
     14 C39          3.7130     1.2990     0.3190 cc         1 3WW       0.345200
     15 H54          0.1110     0.8670    -1.2930 h1         1 3WW       0.091700
     16 H55         -0.1280    -0.6410     1.3410 hc         1 3WW       0.056200
     17 H56         -0.1280     1.1040     1.1630 hc         1 3WW       0.056200
     18 H57         -2.1160    -1.9540     0.7520 ha         1 3WW       0.127000
     19 H58         -4.5370    -1.9720     0.3050 ha         1 3WW       0.128500
     20 H59         -5.7100     0.1280    -0.2790 ha         1 3WW       0.128000
     21 H60         -4.4330     2.2470    -0.4160 ha         1 3WW       0.128500
     22 H61         -2.0110     2.2600     0.0330 ha         1 3WW       0.127000
     23 H62          5.2680    -0.2520     0.2460 h4         1 3WW       0.181000
     24 H63          4.2730     2.1650     0.6430 h4         1 3WW       0.044100
     25 H2           0.3250    -1.9950    -0.7030 hn         1 3WW       0.355300
     26 H10          0.6520    -1.2920    -2.1480 hn         1 3WW       0.355300
@<TRIPOS>BOND
     1     1     6 2   
     2     1    14 1   
     3     2     3 1   
     4     2    25 1   
     5     2    26 1   
     6     3     4 1   
     7     3     6 1   
     8     3    15 1   
     9     4     5 1   
    10     4    16 1   
    11     4    17 1   
    12     5     7 ar  
    13     5    11 ar  
    14     6    12 1   
    15     7     8 ar  
    16     7    18 1   
    17     8     9 ar  
    18     8    19 1   
    19     9    10 ar  
    20     9    20 1   
    21    10    11 ar  
    22    10    21 1   
    23    11    22 1   
    24    12    13 1   
    25    13    14 2   
    26    13    23 1   
    27    14    24 1   
@<TRIPOS>SUBSTRUCTURE
     1 3WW         1 TEMP              0 ****  ****    0 ROOT
