@<TRIPOS>MOLECULE
3WW
   26    27     1     0     0
SMALL
No Charge or Current Charge


@<TRIPOS>ATOM
      1 N6           2.6440     1.2710    -0.7750 nc         1 3WW      -0.639000
      2 N2           0.2070    -0.9520    -1.5630 n8         1 3WW      -1.011200
      3 C29          0.4300     0.1280    -0.5430 c3         1 3WW       0.144200
      4 C30         -0.4490    -0.0990     0.7170 c3         1 3WW      -0.021100
      5 C31         -1.9490    -0.0050     0.4440 ca         1 3WW      -0.069300
      6 C32          1.9100     0.3280    -0.1930 cd         1 3WW       0.392700
      7 C33         -2.7510    -1.1640     0.4400 ca         1 3WW      -0.098000
      8 C34         -4.1330    -1.0700     0.1990 ca         1 3WW      -0.111500
      9 C35         -4.7240     0.1830    -0.0370 ca         1 3WW      -0.110000
     10 C36         -3.9310     1.3420    -0.0310 ca         1 3WW      -0.111500
     11 C37         -2.5480     1.2490     0.2100 ca         1 3WW      -0.098000
     12 S1           2.7570    -0.7070     0.9580 ss         1 3WW      -0.068400
     13 C38          4.1930     0.2420     0.6210 cd         1 3WW      -0.260000
     14 C39          3.9330     1.2200    -0.3070 cc         1 3WW       0.279900
     15 H54          0.0940     1.0740    -0.9930 h1         1 3WW       0.091700
     16 H55         -0.2030    -1.0710     1.1630 hc         1 3WW       0.056200
     17 H56         -0.1790     0.6520     1.4700 hc         1 3WW       0.056200
     18 H57         -2.3040    -2.1390     0.6200 ha         1 3WW       0.109000
     19 H58         -4.7460    -1.9690     0.1950 ha         1 3WW       0.110500
     20 H59         -5.7930     0.2550    -0.2230 ha         1 3WW       0.110000
     21 H60         -4.3860     2.3130    -0.2120 ha         1 3WW       0.110500
     22 H61         -1.9430     2.1530     0.2160 ha         1 3WW       0.109000
     23 H62          5.1330     0.0280     1.1130 h4         1 3WW       0.163000
     24 H63          4.6470     1.9370    -0.6910 h4         1 3WW       0.044100
     25 H2           0.5930    -1.8380    -1.2150 hn         1 3WW       0.410500
     26 H10          0.7780    -0.7530    -2.3940 hn         1 3WW       0.410500
@<TRIPOS>BOND
     1     1     6 2   
     2     1    14 1   
     3     2     3 1   
     4     2    25 1   
     5     2    26 1   
     6     3     4 1   
     7     3     6 1   
     8     3    15 1   
     9     4     5 1   
    10     4    16 1   
    11     4    17 1   
    12     5     7 ar  
    13     5    11 ar  
    14     6    12 1   
    15     7     8 ar  
    16     7    18 1   
    17     8     9 ar  
    18     8    19 1   
    19     9    10 ar  
    20     9    20 1   
    21    10    11 ar  
    22    10    21 1   
    23    11    22 1   
    24    12    13 1   
    25    13    14 2   
    26    13    23 1   
    27    14    24 1   
@<TRIPOS>SUBSTRUCTURE
     1 3WW         1 TEMP              0 ****  ****    0 ROOT
