@<TRIPOS>MOLECULE
3WX
   19    19     1     0     0
SMALL
No Charge or Current Charge


@<TRIPOS>ATOM
      1 CB           7.2860    87.2820   107.6540 c5         1 3WX      -0.087400
      2 CA           6.6180    88.6820   107.8310 c5         1 3WX       0.023200
      3 CG           6.1140    86.4300   107.0920 c5         1 3WX      -0.105400
      4 C            6.4520    89.4280   106.4130 c          1 3WX       0.733000
      5 N            5.3440    88.2470   108.5020 n7         1 3WX      -0.792400
      6 O            5.5290    90.2220   106.2550 o          1 3WX      -0.724500
      7 C39          7.4330    89.6050   108.7710 c3         1 3WX      -0.056100
      8 CD           4.8450    87.1340   107.6600 c5         1 3WX       0.150800
      9 HB2          7.6260    86.8800   108.6160 hc         1 3WX       0.029200
     10 HB3          8.1620    87.2880   106.9950 hc         1 3WX       0.029200
     11 HG2          6.1020    86.4320   105.9960 hc         1 3WX       0.027200
     12 HG3          6.1830    85.3830   107.4110 hc         1 3WX       0.027200
     13 H            5.5930    87.8630   109.4180 hn         1 3WX       0.349000
     14 H55          7.5970    89.1410   109.7510 hc         1 3WX       0.018367
     15 H56          8.4170    89.8290   108.3410 hc         1 3WX       0.018367
     16 H57          6.9180    90.5590   108.9340 hc         1 3WX       0.018367
     17 HD2          4.2300    87.5260   106.8370 h1         1 3WX       0.032200
     18 HD3          4.2160    86.4480   108.2450 h1         1 3WX       0.032200
     19 OXT          7.2150    89.1720   105.4880 o          1 3WX      -0.724500
@<TRIPOS>BOND
     1     1     2 1   
     2     1     3 1   
     3     1     9 1   
     4     1    10 1   
     5     2     4 1   
     6     2     5 1   
     7     2     7 1   
     8     3     8 1   
     9     3    11 1   
    10     3    12 1   
    11     4     6 1   
    12     4    19 1   
    13     5     8 1   
    14     5    13 1   
    15     7    14 1   
    16     7    15 1   
    17     7    16 1   
    18     8    17 1   
    19     8    18 1   
@<TRIPOS>SUBSTRUCTURE
     1 3WX         1 TEMP              0 ****  ****    0 ROOT
