@<TRIPOS>MOLECULE
3WX
   19    19     1     0     0
SMALL
abcg2


@<TRIPOS>ATOM
      1 CB           7.2670    87.2820   107.5760 c5         1 3WX      -0.087400
      2 CA           6.6350    88.6670   107.8020 c5         1 3WX       0.023200
      3 CG           6.0860    86.4380   107.0980 c5         1 3WX      -0.105400
      4 C            6.4880    89.4140   106.4410 c          1 3WX       0.733000
      5 N            5.3330    88.3510   108.3950 n7         1 3WX      -0.792400
      6 O            5.3570    89.7980   106.0920 o          1 3WX      -0.724500
      7 C39          7.4440    89.5350   108.7560 c3         1 3WX      -0.056100
      8 CD           4.8520    87.1530   107.7060 c5         1 3WX       0.150800
      9 HB2          7.6450    86.9030   108.5320 hc         1 3WX       0.029200
     10 HB3          8.1050    87.2900   106.8800 hc         1 3WX       0.029200
     11 HG2          6.0300    86.4320   106.0070 hc         1 3WX       0.027200
     12 HG3          6.1610    85.3970   107.4170 hc         1 3WX       0.027200
     13 H            5.5030    88.0970   109.3620 hn         1 3WX       0.349000
     14 H55          7.5850    89.0300   109.7160 hc         1 3WX       0.018367
     15 H56          8.4310    89.7480   108.3470 hc         1 3WX       0.018367
     16 H57          6.9460    90.4870   108.9500 hc         1 3WX       0.018367
     17 HD2          4.1480    87.4290   106.9190 h1         1 3WX       0.032200
     18 HD3          4.3100    86.5160   108.4060 h1         1 3WX       0.032200
     19 OXT          7.5540    89.5830   105.8110 o          1 3WX      -0.724500
@<TRIPOS>BOND
     1     1     2 1   
     2     1     3 1   
     3     1     9 1   
     4     1    10 1   
     5     2     4 1   
     6     2     5 1   
     7     2     7 1   
     8     3     8 1   
     9     3    11 1   
    10     3    12 1   
    11     4     6 1   
    12     4    19 1   
    13     5     8 1   
    14     5    13 1   
    15     7    14 1   
    16     7    15 1   
    17     7    16 1   
    18     8    17 1   
    19     8    18 1   
@<TRIPOS>SUBSTRUCTURE
     1 3WX         1 TEMP              0 ****  ****    0 ROOT
