@<TRIPOS>MOLECULE
3WY
  114   116     1     0     0
SMALL
No Charge or Current Charge


@<TRIPOS>ATOM
      1 C36          7.2480     4.0030    -1.4700 c5         1 3WY      -0.082400
      2 C35          6.9210     2.5480    -1.9240 c5         1 3WY       0.104200
      3 C37          5.8260     4.5730    -1.2730 c5         1 3WY      -0.092400
      4 C34          6.6520     1.6800    -0.6140 c          1 3WY       0.605100
      5 N5           5.7110     2.7220    -2.8200 n7         1 3WY      -0.894400
      6 O8           7.4280     1.4350     0.3040 o          1 3WY      -0.641100
      7 C39          8.0710     1.8970    -2.7260 c3         1 3WY      -0.097100
      8 C38          5.1620     4.0850    -2.5800 c5         1 3WY       0.165800
      9 N4           5.3690     1.1950    -0.6710 ns         1 3WY      -0.473900
     10 C30          4.6960     0.3570     0.3450 c3         1 3WY       0.040700
     11 C29          3.8170    -0.7310    -0.3570 c          1 3WY       0.593100
     12 O7           3.4680    -0.5850    -1.5250 o          1 3WY      -0.613100
     13 C31          3.8650     1.2230     1.3470 c3         1 3WY      -0.067700
     14 C33          4.7600     2.0730     2.2790 c3         1 3WY      -0.090100
     15 C32          2.7940     2.0970     0.6470 c3         1 3WY      -0.090100
     16 N3           3.3830    -1.8620     0.3890 n          1 3WY      -0.400800
     17 C6           1.0650    -2.7070     0.7820 c3         1 3WY       0.157300
     18 C3           2.8580    -4.2150    -0.5420 c3         1 3WY      -0.056700
     19 C5           2.3290    -2.7760    -0.1510 c3         1 3WY       0.113700
     20 C7          -0.2960    -2.8560     0.0390 c3         1 3WY      -0.191400
     21 C8          -1.4330    -1.9390     0.5230 c          1 3WY       0.595100
     22 O6           1.1720    -3.7250     1.8060 os         1 3WY      -0.469000
     23 O1          -1.2280    -1.0480     1.3350 o          1 3WY      -0.591100
     24 C2           4.0580    -4.2000    -1.5470 c3         1 3WY      -0.074400
     25 C1           5.4470    -3.8490    -0.9640 c3         1 3WY      -0.086100
     26 C4           1.7370    -5.1190    -1.1220 c3         1 3WY      -0.086100
     27 C28          4.0050    -2.2220     1.6910 c3         1 3WY       0.087300
     28 C27          0.2400    -3.6290     2.9000 c3         1 3WY       0.143900
     29 C10         -4.2330    -2.3400    -1.7840 c5         1 3WY      -0.095400
     30 C14         -5.4120    -0.1570     2.1710 c3         1 3WY      -0.144700
     31 C16         -4.9380     1.2360     1.7230 c          1 3WY       0.598100
     32 N1          -2.7360    -2.1720     0.0270 n          1 3WY      -0.408800
     33 C12         -3.8870    -1.2920     0.3720 c5         1 3WY       0.089700
     34 C11         -5.0150    -1.8760    -0.5380 c5         1 3WY      -0.083400
     35 C9          -3.0110    -3.0390    -1.1440 c5         1 3WY       0.106000
     36 C13         -4.3040    -1.2120     1.8920 c3         1 3WY       0.160300
     37 O5          -4.8210    -2.4830     2.3680 os         1 3WY      -0.466000
     38 O2          -4.0000     1.8120     2.2570 o          1 3WY      -0.618100
     39 N2          -5.6570     1.7920     0.6850 ns         1 3WY      -0.454900
     40 C17         -5.3950     3.1160     0.0670 c3         1 3WY      -0.037300
     41 C25         -6.7180     3.9320    -0.0440 c          1 3WY       0.718000
     42 O3          -7.6890     3.4030    -0.5700 o          1 3WY      -0.720500
     43 C18         -4.7000     2.9930    -1.3170 c3         1 3WY      -0.041100
     44 C19         -3.3630     2.2490    -1.3150 ca         1 3WY      -0.051300
     45 C20         -2.3410     2.5940    -0.4070 ca         1 3WY      -0.114500
     46 C24         -3.1200     1.2340    -2.2630 ca         1 3WY      -0.114500
     47 C21         -1.1090     1.9180    -0.4300 ca         1 3WY      -0.116500
     48 C23         -1.8860     0.5600    -2.2880 ca         1 3WY      -0.116500
     49 C22         -0.8800     0.9000    -1.3700 ca         1 3WY      -0.140000
     50 O4          -6.7570     5.0410     0.4720 o          1 3WY      -0.720500
     51 H1           7.8530     4.0460    -0.5570 hc         1 3WY       0.055700
     52 H2           7.7930     4.5590    -2.2440 hc         1 3WY       0.055700
     53 H6           5.3320     4.1610    -0.3860 hc         1 3WY       0.058700
     54 H7           5.8140     5.6640    -1.1800 hc         1 3WY       0.058700
     55 H23          5.9960     2.6600    -3.8060 hn         1 3WY       0.427000
     56 H55          8.9870     1.8380    -2.1250 hc         1 3WY       0.044367
     57 H56          7.8090     0.8780    -3.0330 hc         1 3WY       0.044367
     58 H57          8.3050     2.4710    -3.6310 hc         1 3WY       0.044367
     59 H58          4.0660     4.0770    -2.5120 h1         1 3WY       0.039200
     60 H59          5.4390     4.7480    -3.4120 h1         1 3WY       0.039200
     61 H41          4.8690     1.4680    -1.5150 hn         1 3WY       0.364500
     62 H40          5.4750    -0.1740     0.9040 h1         1 3WY       0.084700
     63 H48          3.3160     0.5380     2.0020 hc         1 3WY       0.052700
     64 H3           5.2990     2.8440     1.7170 hc         1 3WY       0.040867
     65 H4           4.1540     2.5730     3.0440 hc         1 3WY       0.040867
     66 H5           5.4960     1.4420     2.7910 hc         1 3WY       0.040867
     67 H10          3.2550     2.8440    -0.0090 hc         1 3WY       0.040867
     68 H8           2.1190     1.4800     0.0420 hc         1 3WY       0.040867
     69 H9           2.1860     2.6270     1.3890 hc         1 3WY       0.040867
     70 H17          1.0940    -1.7100     1.2420 h1         1 3WY       0.077700
     71 H42          3.2070    -4.7140     0.3700 hc         1 3WY       0.058700
     72 H39          1.9880    -2.3460    -1.0990 h1         1 3WY       0.087700
     73 H15         -0.1820    -2.6550    -1.0310 hc         1 3WY       0.065700
     74 H16         -0.6630    -3.8870     0.0250 hc         1 3WY       0.065700
     75 H43          4.1590    -5.1970    -1.9920 hc         1 3WY       0.039200
     76 H44          3.8320    -3.5220    -2.3790 hc         1 3WY       0.039200
     77 H45          6.2310    -4.1240    -1.6800 hc         1 3WY       0.030033
     78 H46          5.5530    -2.7780    -0.7700 hc         1 3WY       0.030033
     79 H47          5.6320    -4.3990    -0.0340 hc         1 3WY       0.030033
     80 H11          1.2380    -4.6350    -1.9700 hc         1 3WY       0.033033
     81 H12          2.1420    -6.0780    -1.4690 hc         1 3WY       0.033033
     82 H13          0.9900    -5.3620    -0.3600 hc         1 3WY       0.033033
     83 H49          3.6450    -1.5560     2.4830 h1         1 3WY       0.042700
     84 H50          3.7500    -3.2500     1.9720 h1         1 3WY       0.042700
     85 H51          5.0980    -2.1550     1.6230 h1         1 3WY       0.042700
     86 H52          0.2930    -2.6400     3.3730 h1         1 3WY       0.033033
     87 H53         -0.7880    -3.8020     2.5620 h1         1 3WY       0.033033
     88 H54          0.4730    -4.3830     3.6620 h1         1 3WY       0.033033
     89 H33         -4.8130    -3.0160    -2.4230 hc         1 3WY       0.048200
     90 H34         -3.9260    -1.4910    -2.4030 hc         1 3WY       0.048200
     91 H35         -6.2890    -0.4290     1.5720 hc         1 3WY       0.048700
     92 H30         -3.6360    -0.2760     0.0420 h1         1 3WY       0.101700
     93 H31         -5.7820    -1.1330    -0.7820 hc         1 3WY       0.058200
     94 H32         -5.5250    -2.7260    -0.0720 hc         1 3WY       0.058200
     95 H18         -3.2560    -4.0580    -0.8170 h1         1 3WY       0.039200
     96 H19         -2.1780    -3.0910    -1.8560 h1         1 3WY       0.039200
     97 H20         -3.4260    -0.9200     2.4830 h1         1 3WY       0.080700
     98 H14         -6.4430     1.2560     0.3370 hn         1 3WY       0.293500
     99 H60         -4.7380     3.6880     0.7330 h1         1 3WY       0.067700
    100 H25         -5.3970     2.5060    -2.0100 hc         1 3WY       0.060200
    101 H26         -4.5420     4.0030    -1.7140 hc         1 3WY       0.060200
    102 H21         -2.4990     3.3850     0.3210 ha         1 3WY       0.114000
    103 H63         -3.8890     0.9650    -2.9830 ha         1 3WY       0.114000
    104 H22         -0.3320     2.1850     0.2820 ha         1 3WY       0.102500
    105 H62         -1.7100    -0.2250    -3.0200 ha         1 3WY       0.102500
    106 H61          0.0740     0.3780    -1.3870 ha         1 3WY       0.094000
    107 C26         -3.8650    -3.5340     2.5930 c3         1 3WY       0.157900
    108 C15         -5.8640    -0.1140     3.6550 c3         1 3WY      -0.070100
    109 H36         -6.6090     0.6760     3.8060 hc         1 3WY       0.039033
    110 H27         -3.0120    -3.1690     3.1800 h1         1 3WY       0.020700
    111 H28         -4.3340    -4.3540     3.1510 h1         1 3WY       0.020700
    112 H29         -3.4950    -3.9500     1.6490 h1         1 3WY       0.020700
    113 H37         -6.3190    -1.0640     3.9590 hc         1 3WY       0.039033
    114 H38         -5.0130     0.0870     4.3180 hc         1 3WY       0.039033
@<TRIPOS>BOND
     1     1     2 1   
     2     1     3 1   
     3     1    51 1   
     4     1    52 1   
     5     2     4 1   
     6     2     5 1   
     7     2     7 1   
     8     3     8 1   
     9     3    53 1   
    10     3    54 1   
    11     4     6 2   
    12     4     9 1   
    13     5     8 1   
    14     5    55 1   
    15     7    56 1   
    16     7    57 1   
    17     7    58 1   
    18     8    59 1   
    19     8    60 1   
    20     9    10 1   
    21     9    61 1   
    22    10    11 1   
    23    10    13 1   
    24    10    62 1   
    25    11    12 2   
    26    11    16 1   
    27    13    14 1   
    28    13    15 1   
    29    13    63 1   
    30    14    64 1   
    31    14    65 1   
    32    14    66 1   
    33    15    67 1   
    34    15    68 1   
    35    15    69 1   
    36    16    19 1   
    37    16    27 1   
    38    17    19 1   
    39    17    20 1   
    40    17    22 1   
    41    17    70 1   
    42    18    19 1   
    43    18    24 1   
    44    18    26 1   
    45    18    71 1   
    46    19    72 1   
    47    20    21 1   
    48    20    73 1   
    49    20    74 1   
    50    21    23 2   
    51    21    32 1   
    52    22    28 1   
    53    24    25 1   
    54    24    75 1   
    55    24    76 1   
    56    25    77 1   
    57    25    78 1   
    58    25    79 1   
    59    26    80 1   
    60    26    81 1   
    61    26    82 1   
    62    27    83 1   
    63    27    84 1   
    64    27    85 1   
    65    28    86 1   
    66    28    87 1   
    67    28    88 1   
    68    29    34 1   
    69    29    35 1   
    70    29    89 1   
    71    29    90 1   
    72    30    31 1   
    73    30    36 1   
    74    30    91 1   
    75    30   108 1   
    76    31    38 2   
    77    31    39 1   
    78    32    33 1   
    79    32    35 1   
    80    33    34 1   
    81    33    36 1   
    82    33    92 1   
    83    34    93 1   
    84    34    94 1   
    85    35    95 1   
    86    35    96 1   
    87    36    37 1   
    88    36    97 1   
    89    37   107 1   
    90    39    40 1   
    91    39    98 1   
    92    40    41 1   
    93    40    43 1   
    94    40    99 1   
    95    41    42 1   
    96    41    50 1   
    97    43    44 1   
    98    43   100 1   
    99    43   101 1   
   100    44    45 ar  
   101    44    46 ar  
   102    45    47 ar  
   103    45   102 1   
   104    46    48 ar  
   105    46   103 1   
   106    47    49 ar  
   107    47   104 1   
   108    48    49 ar  
   109    48   105 1   
   110    49   106 1   
   111   107   110 1   
   112   107   111 1   
   113   107   112 1   
   114   108   109 1   
   115   108   113 1   
   116   108   114 1   
@<TRIPOS>SUBSTRUCTURE
     1 3WY         1 TEMP              0 ****  ****    0 ROOT
