@<TRIPOS>MOLECULE
3WY
  114   116     1     0     0
SMALL
bcc


@<TRIPOS>ATOM
      1 C36          6.6350     4.0960    -1.3770 c5         1 3WY      -0.082400
      2 C35          6.4570     2.6320    -1.8390 c5         1 3WY       0.104200
      3 C37          5.2980     4.7480    -1.7080 c5         1 3WY      -0.092400
      4 C34          6.0900     1.7700    -0.6190 c          1 3WY       0.672100
      5 N5           5.3440     2.6820    -2.7930 n7         1 3WY      -0.839200
      6 O8           6.9140     1.5240     0.2550 o          1 3WY      -0.641100
      7 C39          7.7310     2.0710    -2.4640 c3         1 3WY      -0.097100
      8 C38          4.9370     4.0660    -3.0170 c5         1 3WY       0.165800
      9 N4           4.8230     1.3500    -0.6040 ns         1 3WY      -0.540900
     10 C30          4.2520     0.5230     0.4220 c3         1 3WY       0.040700
     11 C29          3.4760    -0.6160    -0.2420 c          1 3WY       0.660100
     12 O7           3.0180    -0.4470    -1.3660 o          1 3WY      -0.613100
     13 C31          3.3220     1.3240     1.3670 c3         1 3WY      -0.067700
     14 C33          4.1310     2.3230     2.1860 c3         1 3WY      -0.090100
     15 C32          2.1920     2.0250     0.6230 c3         1 3WY      -0.090100
     16 N3           3.2850    -1.7510     0.4670 n          1 3WY      -0.467800
     17 C6           1.0530    -2.6850     0.8430 c3         1 3WY       0.134100
     18 C3           2.9650    -4.1200    -0.2450 c3         1 3WY      -0.056700
     19 C5           2.3220    -2.7390    -0.0340 c3         1 3WY       0.113700
     20 C7          -0.2480    -2.9420     0.0690 c3         1 3WY      -0.191400
     21 C8          -1.3690    -1.9840     0.4440 c          1 3WY       0.662100
     22 O6           1.2120    -3.5630     1.9330 os         1 3WY      -0.422600
     23 O1          -1.1670    -0.9890     1.1260 o          1 3WY      -0.591100
     24 C2           4.1750    -4.0300    -1.1970 c3         1 3WY      -0.074400
     25 C1           5.5280    -3.8230    -0.5250 c3         1 3WY      -0.086100
     26 C4           1.9450    -5.1160    -0.7940 c3         1 3WY      -0.086100
     27 C28          3.8010    -1.9500     1.8100 c3         1 3WY       0.087300
     28 C27          0.3040    -3.3600     2.9850 c3         1 3WY       0.120700
     29 C10         -3.9740    -2.6860    -1.8590 c5         1 3WY      -0.095400
     30 C14         -5.2740    -0.2670     1.8320 c3         1 3WY      -0.144700
     31 C16         -4.4890     1.0370     1.8970 c          1 3WY       0.665100
     32 N1          -2.5920    -2.2720    -0.0350 n          1 3WY      -0.475800
     33 C12         -3.6970    -1.3340     0.1530 c5         1 3WY       0.089700
     34 C11         -4.7200    -1.7320    -0.9260 c5         1 3WY      -0.083400
     35 C9          -2.9430    -3.3430    -0.9540 c5         1 3WY       0.106000
     36 C13         -4.2600    -1.3990     1.5770 c3         1 3WY       0.137100
     37 O5          -4.8650    -2.6530     1.8030 os         1 3WY      -0.419600
     38 O2          -3.7630     1.2830     2.8540 o          1 3WY      -0.618100
     39 N2          -4.6030     1.8500     0.8420 ns         1 3WY      -0.521900
     40 C17         -3.8840     3.0940     0.7310 c3         1 3WY      -0.037300
     41 C25         -4.6030     4.2870     1.4140 c          1 3WY       0.928600
     42 O3          -5.6840     4.0640     1.9810 o          1 3WY      -0.825800
     43 C18         -3.5790     3.3980    -0.7400 c3         1 3WY      -0.041100
     44 C19         -2.8770     2.2700    -1.4460 ca         1 3WY      -0.051300
     45 C20         -1.5950     1.8690    -1.0690 ca         1 3WY      -0.132500
     46 C24         -3.5030     1.5820    -2.4820 ca         1 3WY      -0.132500
     47 C21         -0.9620     0.8120    -1.7050 ca         1 3WY      -0.134500
     48 C23         -2.8710     0.5280    -3.1280 ca         1 3WY      -0.134500
     49 C22         -1.5980     0.1360    -2.7380 ca         1 3WY      -0.158000
     50 O4          -4.0010     5.3760     1.3290 o          1 3WY      -0.825800
     51 H1           6.9210     4.1820    -0.3290 hc         1 3WY       0.055700
     52 H2           7.4280     4.5610    -1.9680 hc         1 3WY       0.055700
     53 H6           4.5530     4.5260    -0.9390 hc         1 3WY       0.058700
     54 H7           5.3620     5.8320    -1.8020 hc         1 3WY       0.058700
     55 H23          5.5650     2.2000    -3.6540 hn         1 3WY       0.371800
     56 H55          8.5590     2.0770    -1.7570 hc         1 3WY       0.044367
     57 H56          7.5900     1.0440    -2.8080 hc         1 3WY       0.044367
     58 H57          8.0190     2.6780    -3.3240 hc         1 3WY       0.044367
     59 H58          3.8730     4.1290    -3.2510 h1         1 3WY       0.039200
     60 H59          5.4860     4.5350    -3.8430 h1         1 3WY       0.039200
     61 H41          4.2910     1.5890    -1.4330 hn         1 3WY       0.364500
     62 H40          5.0840     0.1410     1.0150 h1         1 3WY       0.084700
     63 H48          2.8730     0.6110     2.0660 hc         1 3WY       0.052700
     64 H3           4.5820     3.0860     1.5500 hc         1 3WY       0.040867
     65 H4           3.4860     2.8350     2.9020 hc         1 3WY       0.040867
     66 H5           4.9300     1.8340     2.7450 hc         1 3WY       0.040867
     67 H10          2.5820     2.7590    -0.0850 hc         1 3WY       0.040867
     68 H8           1.5590     1.3300     0.0720 hc         1 3WY       0.040867
     69 H9           1.5530     2.5580     1.3270 hc         1 3WY       0.040867
     70 H17          0.9890    -1.6530     1.2150 h1         1 3WY       0.077700
     71 H42          3.3140    -4.5170     0.7140 hc         1 3WY       0.058700
     72 H39          2.0330    -2.3810    -1.0200 h1         1 3WY       0.087700
     73 H15         -0.0780    -2.8240    -1.0060 hc         1 3WY       0.065700
     74 H16         -0.5780    -3.9750     0.2000 hc         1 3WY       0.065700
     75 H43          4.2280    -4.9620    -1.7660 hc         1 3WY       0.039200
     76 H44          4.0050    -3.2430    -1.9370 hc         1 3WY       0.039200
     77 H45          6.3330    -3.8590    -1.2600 hc         1 3WY       0.030033
     78 H46          5.5980    -2.8640    -0.0140 hc         1 3WY       0.030033
     79 H47          5.7210    -4.6040     0.2130 hc         1 3WY       0.030033
     80 H11          1.5280    -4.7830    -1.7480 hc         1 3WY       0.033033
     81 H12          2.4220    -6.0810    -0.9660 hc         1 3WY       0.033033
     82 H13          1.1200    -5.2850    -0.1050 hc         1 3WY       0.033033
     83 H49          3.1700    -1.4940     2.5750 h1         1 3WY       0.042700
     84 H50          3.8600    -3.0130     2.0190 h1         1 3WY       0.042700
     85 H51          4.8080    -1.5560     1.9160 h1         1 3WY       0.042700
     86 H52          0.3160    -2.3270     3.3470 h1         1 3WY       0.033033
     87 H53         -0.7280    -3.6080     2.7080 h1         1 3WY       0.033033
     88 H54          0.5970    -4.0180     3.8030 h1         1 3WY       0.033033
     89 H33         -4.6310    -3.4130    -2.3360 hc         1 3WY       0.048200
     90 H34         -3.4610    -2.1310    -2.6440 hc         1 3WY       0.048200
     91 H35         -5.9920    -0.2250     1.0050 hc         1 3WY       0.048700
     92 H30         -3.3210    -0.3270    -0.0400 h1         1 3WY       0.101700
     93 H31         -5.0930    -0.8540    -1.4500 hc         1 3WY       0.058200
     94 H32         -5.5790    -2.2410    -0.4870 hc         1 3WY       0.058200
     95 H18         -3.3710    -4.1930    -0.4140 h1         1 3WY       0.039200
     96 H19         -2.0780    -3.7040    -1.5080 h1         1 3WY       0.039200
     97 H20         -3.4380    -1.2570     2.2890 h1         1 3WY       0.080700
     98 H14         -5.2950     1.6370     0.1420 hn         1 3WY       0.293500
     99 H60         -2.9300     2.9580     1.2480 h1         1 3WY       0.067700
    100 H25         -4.5080     3.6370    -1.2670 hc         1 3WY       0.060200
    101 H26         -2.9680     4.3010    -0.7670 hc         1 3WY       0.060200
    102 H21         -1.0850     2.3860    -0.2630 ha         1 3WY       0.132000
    103 H63         -4.5000     1.8760    -2.7900 ha         1 3WY       0.132000
    104 H22          0.0310     0.5110    -1.3970 ha         1 3WY       0.120500
    105 H62         -3.3770     0.0110    -3.9330 ha         1 3WY       0.120500
    106 H61         -1.1060    -0.6920    -3.2330 ha         1 3WY       0.112000
    107 C26         -4.1340    -3.5260     2.6270 c3         1 3WY       0.134700
    108 C15         -6.0450    -0.4700     3.1330 c3         1 3WY      -0.070100
    109 H36         -6.7030     0.3770     3.3290 hc         1 3WY       0.039033
    110 H27         -3.9140    -3.0830     3.6050 h1         1 3WY       0.020700
    111 H28         -4.7400    -4.4190     2.7860 h1         1 3WY       0.020700
    112 H29         -3.1860    -3.8370     2.1760 h1         1 3WY       0.020700
    113 H37         -6.6640    -1.3630     3.0810 hc         1 3WY       0.039033
    114 H38         -5.3690    -0.5740     3.9820 hc         1 3WY       0.039033
@<TRIPOS>BOND
     1     1     2 1   
     2     1     3 1   
     3     1    51 1   
     4     1    52 1   
     5     2     4 1   
     6     2     5 1   
     7     2     7 1   
     8     3     8 1   
     9     3    53 1   
    10     3    54 1   
    11     4     6 2   
    12     4     9 1   
    13     5     8 1   
    14     5    55 1   
    15     7    56 1   
    16     7    57 1   
    17     7    58 1   
    18     8    59 1   
    19     8    60 1   
    20     9    10 1   
    21     9    61 1   
    22    10    11 1   
    23    10    13 1   
    24    10    62 1   
    25    11    12 2   
    26    11    16 1   
    27    13    14 1   
    28    13    15 1   
    29    13    63 1   
    30    14    64 1   
    31    14    65 1   
    32    14    66 1   
    33    15    67 1   
    34    15    68 1   
    35    15    69 1   
    36    16    19 1   
    37    16    27 1   
    38    17    19 1   
    39    17    20 1   
    40    17    22 1   
    41    17    70 1   
    42    18    19 1   
    43    18    24 1   
    44    18    26 1   
    45    18    71 1   
    46    19    72 1   
    47    20    21 1   
    48    20    73 1   
    49    20    74 1   
    50    21    23 2   
    51    21    32 1   
    52    22    28 1   
    53    24    25 1   
    54    24    75 1   
    55    24    76 1   
    56    25    77 1   
    57    25    78 1   
    58    25    79 1   
    59    26    80 1   
    60    26    81 1   
    61    26    82 1   
    62    27    83 1   
    63    27    84 1   
    64    27    85 1   
    65    28    86 1   
    66    28    87 1   
    67    28    88 1   
    68    29    34 1   
    69    29    35 1   
    70    29    89 1   
    71    29    90 1   
    72    30    31 1   
    73    30    36 1   
    74    30    91 1   
    75    30   108 1   
    76    31    38 2   
    77    31    39 1   
    78    32    33 1   
    79    32    35 1   
    80    33    34 1   
    81    33    36 1   
    82    33    92 1   
    83    34    93 1   
    84    34    94 1   
    85    35    95 1   
    86    35    96 1   
    87    36    37 1   
    88    36    97 1   
    89    37   107 1   
    90    39    40 1   
    91    39    98 1   
    92    40    41 1   
    93    40    43 1   
    94    40    99 1   
    95    41    42 1   
    96    41    50 1   
    97    43    44 1   
    98    43   100 1   
    99    43   101 1   
   100    44    45 ar  
   101    44    46 ar  
   102    45    47 ar  
   103    45   102 1   
   104    46    48 ar  
   105    46   103 1   
   106    47    49 ar  
   107    47   104 1   
   108    48    49 ar  
   109    48   105 1   
   110    49   106 1   
   111   107   110 1   
   112   107   111 1   
   113   107   112 1   
   114   108   109 1   
   115   108   113 1   
   116   108   114 1   
@<TRIPOS>SUBSTRUCTURE
     1 3WY         1 TEMP              0 ****  ****    0 ROOT
