@<TRIPOS>MOLECULE
3WZ
  110   111     1     0     0
SMALL
bcc


@<TRIPOS>ATOM
      1 N5          -5.2940     4.1930     1.3340 n8         1 3WZ      -0.931800
      2 C35         -6.3340     3.1880     1.4530 c3         1 3WZ       0.128200
      3 C34         -6.0960     1.8650     0.6930 c          1 3WZ       0.631100
      4 O8          -6.9010     0.9450     0.7800 o          1 3WZ      -0.619100
      5 C36         -6.4860     2.8440     2.9360 c3         1 3WZ      -0.080100
      6 C37         -7.6350     3.7850     0.9140 c3         1 3WZ      -0.080100
      7 N4          -4.9880     1.7980    -0.0600 ns         1 3WZ      -0.562900
      8 C30         -4.5900     0.6300    -0.8130 c3         1 3WZ       0.033700
      9 C29         -3.2660     0.1430    -0.2170 c          1 3WZ       0.648100
     10 O7          -2.3090     0.9050    -0.2840 o          1 3WZ      -0.599100
     11 C31         -4.4150     0.9330    -2.3090 c3         1 3WZ      -0.067700
     12 C33         -3.9590    -0.3220    -3.0490 c3         1 3WZ      -0.088100
     13 C32         -5.7140     1.4670    -2.9010 c3         1 3WZ      -0.088100
     14 N3          -3.2190    -1.0790     0.3530 n          1 3WZ      -0.460800
     15 C6          -1.4340    -2.7630     0.0410 c3         1 3WZ       0.148100
     16 C3          -1.8560    -1.6390     2.4060 c3         1 3WZ      -0.059700
     17 C5          -1.9340    -1.5630     0.8620 c3         1 3WZ       0.105700
     18 C7           0.0170    -3.1290     0.3640 c3         1 3WZ      -0.188400
     19 C8           1.0280    -2.1580    -0.2180 c          1 3WZ       0.663100
     20 O6          -2.2600    -3.8950     0.2120 os         1 3WZ      -0.420600
     21 O1           0.6790    -1.2540    -0.9680 o          1 3WZ      -0.596100
     22 C2          -2.5330    -2.8180     3.1140 c3         1 3WZ      -0.073400
     23 C1          -2.1420    -2.9300     4.5840 c3         1 3WZ      -0.089100
     24 C4          -2.3050    -0.3020     2.9940 c3         1 3WZ      -0.092100
     25 C28         -4.4170    -1.9020     0.4810 c3         1 3WZ       0.085300
     26 C27         -2.3620    -4.7050    -0.9310 c3         1 3WZ       0.124700
     27 C10          4.0670    -2.6900     1.5890 c5         1 3WZ      -0.093400
     28 C14          4.7190    -0.7470    -2.4410 c3         1 3WZ      -0.150700
     29 C16          4.3600     0.7070    -2.1790 c          1 3WZ       0.658100
     30 N1           2.3190    -2.3660     0.0900 n          1 3WZ      -0.470800
     31 C12          3.3750    -1.4810    -0.4090 c5         1 3WZ       0.098700
     32 C11          4.6080    -1.8650     0.4250 c5         1 3WZ      -0.085400
     33 C9           2.8450    -3.3750     0.9960 c5         1 3WZ       0.105000
     34 C13          3.5940    -1.6510    -1.9160 c3         1 3WZ       0.137100
     35 O5           3.9170    -2.9980    -2.1930 os         1 3WZ      -0.421600
     36 O2           3.3940     1.2230    -2.7300 o          1 3WZ      -0.635100
     37 N2           5.1640     1.3540    -1.3250 ns         1 3WZ      -0.520900
     38 C17          5.0640     2.7580    -1.0080 c3         1 3WZ      -0.043300
     39 C25          6.3510     3.5310    -1.3880 c          1 3WZ       0.924600
     40 O3           7.3620     2.8620    -1.6630 o          1 3WZ      -0.827800
     41 C18          4.7760     2.9760     0.4860 c3         1 3WZ      -0.039100
     42 C19          3.6280     2.1640     1.0200 ca         1 3WZ      -0.052300
     43 C20          2.3630     2.2230     0.4350 ca         1 3WZ      -0.134500
     44 C24          3.8030     1.3390     2.1280 ca         1 3WZ      -0.134500
     45 C21          1.3080     1.4760     0.9370 ca         1 3WZ      -0.132500
     46 C23          2.7470     0.5990     2.6440 ca         1 3WZ      -0.132500
     47 C22          1.4970     0.6620     2.0470 ca         1 3WZ      -0.162000
     48 O4           6.2530     4.7720    -1.3450 o          1 3WZ      -0.827800
     49 H25         -4.4000     3.8810     1.6900 hn         1 3WZ       0.363300
     50 H26         -5.1700     4.5290     0.3880 hn         1 3WZ       0.363300
     51 H1          -6.7390     3.7450     3.4950 hc         1 3WZ       0.045867
     52 H2          -7.2710     2.1080     3.0980 hc         1 3WZ       0.045867
     53 H3          -5.5560     2.4430     3.3480 hc         1 3WZ       0.045867
     54 H7          -7.5400     4.0590    -0.1390 hc         1 3WZ       0.045867
     55 H8          -8.4610     3.0820     1.0040 hc         1 3WZ       0.045867
     56 H9          -7.8880     4.6860     1.4740 hc         1 3WZ       0.045867
     57 H44         -4.3470     2.5750    -0.0450 hn         1 3WZ       0.321500
     58 H43         -5.3940    -0.0960    -0.7160 h1         1 3WZ       0.090700
     59 H51         -3.6420     1.7020    -2.4150 hc         1 3WZ       0.073700
     60 H4          -4.6880    -1.1290    -2.9370 hc         1 3WZ       0.036200
     61 H5          -3.8560    -0.1210    -4.1160 hc         1 3WZ       0.036200
     62 H6          -2.9940    -0.6910    -2.6980 hc         1 3WZ       0.036200
     63 H10         -6.0430     2.3770    -2.4000 hc         1 3WZ       0.036200
     64 H11         -5.5830     1.7030    -3.9580 hc         1 3WZ       0.036200
     65 H12         -6.5150     0.7290    -2.8210 hc         1 3WZ       0.036200
     66 H19         -1.4830    -2.4390    -1.0080 h1         1 3WZ       0.066700
     67 H45         -0.7840    -1.7340     2.6210 hc         1 3WZ       0.048700
     68 H42         -1.2290    -0.7750     0.5990 h1         1 3WZ       0.112700
     69 H17          0.1500    -3.2380     1.4420 hc         1 3WZ       0.063200
     70 H18          0.2360    -4.1200    -0.0500 hc         1 3WZ       0.063200
     71 H46         -3.6210    -2.7300     3.0450 hc         1 3WZ       0.044700
     72 H47         -2.2680    -3.7510     2.6160 hc         1 3WZ       0.044700
     73 H48         -2.5730    -3.8270     5.0290 hc         1 3WZ       0.028367
     74 H49         -1.0580    -2.9960     4.6980 hc         1 3WZ       0.028367
     75 H50         -2.4850    -2.0790     5.1730 hc         1 3WZ       0.028367
     76 H13         -3.3860    -0.1730     2.9020 hc         1 3WZ       0.037367
     77 H14         -2.0580    -0.2280     4.0530 hc         1 3WZ       0.037367
     78 H15         -1.8300     0.5380     2.4870 hc         1 3WZ       0.037367
     79 H52         -4.7870    -2.2390    -0.4880 h1         1 3WZ       0.044367
     80 H53         -4.1850    -2.7860     1.0570 h1         1 3WZ       0.044367
     81 H54         -5.2160    -1.3710     0.9980 h1         1 3WZ       0.044367
     82 H55         -2.7860    -4.1570    -1.7800 h1         1 3WZ       0.026367
     83 H56         -1.3980    -5.1200    -1.2460 h1         1 3WZ       0.026367
     84 H57         -3.0240    -5.5370    -0.6930 h1         1 3WZ       0.026367
     85 H36          4.7920    -3.4050     1.9770 hc         1 3WZ       0.048700
     86 H37          3.7620    -2.0430     2.4120 hc         1 3WZ       0.048700
     87 H38          5.6480    -1.0000    -1.9180 hc         1 3WZ       0.057700
     88 H33          3.0780    -0.4500    -0.2050 h1         1 3WZ       0.104700
     89 H35          5.1470    -0.9790     0.7580 hc         1 3WZ       0.062700
     90 H34          5.3000    -2.4700    -0.1620 hc         1 3WZ       0.062700
     91 H20          3.1270    -4.2810     0.4500 h1         1 3WZ       0.038200
     92 H21          2.1210    -3.6560     1.7580 h1         1 3WZ       0.038200
     93 H22          2.6710    -1.3650    -2.4320 h1         1 3WZ       0.084700
     94 H16          6.0000     0.8850    -1.0150 hn         1 3WZ       0.313500
     95 H58          4.2330     3.1600    -1.5880 h1         1 3WZ       0.073700
     96 H28          5.6750     2.7380     1.0620 hc         1 3WZ       0.056700
     97 H29          4.5850     4.0410     0.6380 hc         1 3WZ       0.056700
     98 H23          2.2040     2.8510    -0.4330 ha         1 3WZ       0.134500
     99 H61          4.7790     1.2750     2.5950 ha         1 3WZ       0.134500
    100 H24          0.3370     1.5180     0.4610 ha         1 3WZ       0.125500
    101 H60          2.9020    -0.0310     3.5110 ha         1 3WZ       0.125500
    102 H59          0.6770     0.0780     2.4430 ha         1 3WZ       0.109000
    103 C26          2.9590    -3.7030    -2.9420 c3         1 3WZ       0.136700
    104 C15          4.9450    -0.9480    -3.9380 c3         1 3WZ      -0.075100
    105 H39          5.7380    -0.2950    -4.3050 hc         1 3WZ       0.038367
    106 H30          2.7320    -3.2120    -3.8940 h1         1 3WZ       0.019700
    107 H31          3.3690    -4.6890    -3.1580 h1         1 3WZ       0.019700
    108 H32          2.0170    -3.8390    -2.4000 h1         1 3WZ       0.019700
    109 H40          5.2410    -1.9740    -4.1490 hc         1 3WZ       0.038367
    110 H41          4.0400    -0.7320    -4.5070 hc         1 3WZ       0.038367
@<TRIPOS>BOND
     1     1     2 1   
     2     1    49 1   
     3     1    50 1   
     4     2     3 1   
     5     2     5 1   
     6     2     6 1   
     7     3     4 2   
     8     3     7 1   
     9     5    51 1   
    10     5    52 1   
    11     5    53 1   
    12     6    54 1   
    13     6    55 1   
    14     6    56 1   
    15     7     8 1   
    16     7    57 1   
    17     8     9 1   
    18     8    11 1   
    19     8    58 1   
    20     9    10 2   
    21     9    14 1   
    22    11    12 1   
    23    11    13 1   
    24    11    59 1   
    25    12    60 1   
    26    12    61 1   
    27    12    62 1   
    28    13    63 1   
    29    13    64 1   
    30    13    65 1   
    31    14    17 1   
    32    14    25 1   
    33    15    17 1   
    34    15    18 1   
    35    15    20 1   
    36    15    66 1   
    37    16    17 1   
    38    16    22 1   
    39    16    24 1   
    40    16    67 1   
    41    17    68 1   
    42    18    19 1   
    43    18    69 1   
    44    18    70 1   
    45    19    21 2   
    46    19    30 1   
    47    20    26 1   
    48    22    23 1   
    49    22    71 1   
    50    22    72 1   
    51    23    73 1   
    52    23    74 1   
    53    23    75 1   
    54    24    76 1   
    55    24    77 1   
    56    24    78 1   
    57    25    79 1   
    58    25    80 1   
    59    25    81 1   
    60    26    82 1   
    61    26    83 1   
    62    26    84 1   
    63    27    32 1   
    64    27    33 1   
    65    27    85 1   
    66    27    86 1   
    67    28    29 1   
    68    28    34 1   
    69    28    87 1   
    70    28   104 1   
    71    29    36 2   
    72    29    37 1   
    73    30    31 1   
    74    30    33 1   
    75    31    32 1   
    76    31    34 1   
    77    31    88 1   
    78    32    89 1   
    79    32    90 1   
    80    33    91 1   
    81    33    92 1   
    82    34    35 1   
    83    34    93 1   
    84    35   103 1   
    85    37    38 1   
    86    37    94 1   
    87    38    39 1   
    88    38    41 1   
    89    38    95 1   
    90    39    40 1   
    91    39    48 1   
    92    41    42 1   
    93    41    96 1   
    94    41    97 1   
    95    42    43 ar  
    96    42    44 ar  
    97    43    45 ar  
    98    43    98 1   
    99    44    46 ar  
   100    44    99 1   
   101    45    47 ar  
   102    45   100 1   
   103    46    47 ar  
   104    46   101 1   
   105    47   102 1   
   106   103   106 1   
   107   103   107 1   
   108   103   108 1   
   109   104   105 1   
   110   104   109 1   
   111   104   110 1   
@<TRIPOS>SUBSTRUCTURE
     1 3WZ         1 TEMP              0 ****  ****    0 ROOT
