@<TRIPOS>MOLECULE
3WZ
  110   111     1     0     0
SMALL
No Charge or Current Charge


@<TRIPOS>ATOM
      1 N5          -5.4100     4.6790     0.4070 n8         1 3WZ      -1.042200
      2 C35         -6.6650     3.8910     0.6610 c3         1 3WZ       0.128200
      3 C34         -6.5760     2.3300     0.3760 c          1 3WZ       0.564100
      4 O8          -7.5180     1.5670     0.5580 o          1 3WZ      -0.619100
      5 C36         -7.0300     4.1040     2.1510 c3         1 3WZ      -0.080100
      6 C37         -7.7630     4.4960    -0.2470 c3         1 3WZ      -0.080100
      7 N4          -5.3590     1.8650    -0.0900 ns         1 3WZ      -0.495900
      8 C30         -5.0520     0.4570    -0.4380 c3         1 3WZ       0.033700
      9 C29         -3.6360     0.1020     0.1340 c          1 3WZ       0.581100
     10 O7          -2.7540     0.9550     0.1280 o          1 3WZ      -0.599100
     11 C31         -5.1370     0.2400    -1.9880 c3         1 3WZ      -0.067700
     12 C33         -4.7560    -1.1900    -2.4450 c3         1 3WZ      -0.088100
     13 C32         -6.5190     0.6290    -2.5720 c3         1 3WZ      -0.088100
     14 N3          -3.3700    -1.2160     0.6040 n          1 3WZ      -0.393800
     15 C6          -1.4230    -2.7610    -0.0410 c3         1 3WZ       0.171300
     16 C3          -1.6520    -1.7980     2.4720 c3         1 3WZ      -0.059700
     17 C5          -1.9630    -1.6450     0.9320 c3         1 3WZ       0.105700
     18 C7           0.0700    -3.1430     0.1580 c3         1 3WZ      -0.188400
     19 C8           1.0900    -2.0680    -0.2480 c          1 3WZ       0.596100
     20 O6          -2.2240    -3.9580     0.0870 os         1 3WZ      -0.467000
     21 O1           0.7300    -1.0120    -0.7470 o          1 3WZ      -0.596100
     22 C2          -2.1270    -3.1160     3.1590 c3         1 3WZ      -0.073400
     23 C1          -1.5380    -3.3490     4.5680 c3         1 3WZ      -0.089100
     24 C4          -2.1220    -0.5450     3.2580 c3         1 3WZ      -0.092100
     25 C28         -4.4900    -2.1210     0.9680 c3         1 3WZ       0.085300
     26 C27         -2.2130    -4.8630    -1.0340 c3         1 3WZ       0.147900
     27 C10          4.3810    -2.8710     1.1450 c5         1 3WZ      -0.093400
     28 C14          4.6200    -0.2050    -2.6750 c3         1 3WZ      -0.150700
     29 C16          4.4900     1.1330    -1.9290 c          1 3WZ       0.591100
     30 N1           2.4620    -2.3790    -0.1340 n          1 3WZ      -0.403800
     31 C12          3.5320    -1.4830    -0.6540 c5         1 3WZ       0.098700
     32 C11          4.8200    -2.2350    -0.1900 c5         1 3WZ      -0.085400
     33 C9           2.9770    -3.4150     0.7920 c5         1 3WZ       0.105000
     34 C13          3.5190    -1.1990    -2.2080 c3         1 3WZ       0.160300
     35 O5           3.7330    -2.4160    -2.9730 os         1 3WZ      -0.468000
     36 O2           3.5090     1.8540    -2.0440 o          1 3WZ      -0.635100
     37 N2           5.5700     1.4670    -1.1380 ns         1 3WZ      -0.453900
     38 C17          5.6980     2.7070    -0.3310 c3         1 3WZ      -0.043300
     39 C25          7.0860     3.3700    -0.5740 c          1 3WZ       0.714000
     40 O3           8.0880     2.6690    -0.5020 o          1 3WZ      -0.722500
     41 C18          5.4620     2.4500     1.1810 c3         1 3WZ      -0.039100
     42 C19          4.1110     1.8240     1.5300 ca         1 3WZ      -0.052300
     43 C20          2.9080     2.3850     1.0550 ca         1 3WZ      -0.116500
     44 C24          4.0550     0.6950     2.3730 ca         1 3WZ      -0.116500
     45 C21          1.6710     1.8110     1.3960 ca         1 3WZ      -0.114500
     46 C23          2.8160     0.1270     2.7200 ca         1 3WZ      -0.114500
     47 C22          1.6260     0.6830     2.2280 ca         1 3WZ      -0.144000
     48 O4           7.1130     4.5440    -0.9130 o          1 3WZ      -0.722500
     49 H25         -4.6340     4.3130     0.9710 hn         1 3WZ       0.418500
     50 H26         -5.1090     4.5700    -0.5700 hn         1 3WZ       0.418500
     51 H1          -7.1090     5.1720     2.3910 hc         1 3WZ       0.045867
     52 H2          -7.9920     3.6350     2.3890 hc         1 3WZ       0.045867
     53 H3          -6.2690     3.6610     2.8060 hc         1 3WZ       0.045867
     54 H7          -7.5260     4.3350    -1.3060 hc         1 3WZ       0.045867
     55 H8          -8.7360     4.0310    -0.0470 hc         1 3WZ       0.045867
     56 H9          -7.8660     5.5750    -0.0790 hc         1 3WZ       0.045867
     57 H44         -4.6150     2.5450    -0.1800 hn         1 3WZ       0.321500
     58 H43         -5.7960    -0.1820     0.0480 h1         1 3WZ       0.090700
     59 H51         -4.4010     0.9160    -2.4430 hc         1 3WZ       0.073700
     60 H4          -5.4700    -1.9290    -2.0650 hc         1 3WZ       0.036200
     61 H5          -4.7620    -1.2560    -3.5400 hc         1 3WZ       0.036200
     62 H6          -3.7500    -1.4680    -2.1110 hc         1 3WZ       0.036200
     63 H10         -6.7350     1.6920    -2.4160 hc         1 3WZ       0.036200
     64 H11         -6.5490     0.4470    -3.6540 hc         1 3WZ       0.036200
     65 H12         -7.3190     0.0410    -2.1060 hc         1 3WZ       0.036200
     66 H19         -1.5360    -2.3650    -1.0600 h1         1 3WZ       0.066700
     67 H45         -0.5590    -1.7990     2.5520 hc         1 3WZ       0.048700
     68 H42         -1.3290    -0.7930     0.6630 h1         1 3WZ       0.112700
     69 H17          0.2690    -3.4740     1.1810 hc         1 3WZ       0.063200
     70 H18          0.3510    -4.0430    -0.3970 hc         1 3WZ       0.063200
     71 H46         -3.2180    -3.1250     3.2460 hc         1 3WZ       0.044700
     72 H47         -1.8450    -3.9780     2.5460 hc         1 3WZ       0.044700
     73 H48         -1.8310    -4.3380     4.9400 hc         1 3WZ       0.028367
     74 H49         -0.4430    -3.3060     4.5440 hc         1 3WZ       0.028367
     75 H50         -1.9040    -2.6020     5.2820 hc         1 3WZ       0.028367
     76 H13         -3.2150    -0.5220     3.3470 hc         1 3WZ       0.037367
     77 H14         -1.6960    -0.5260     4.2680 hc         1 3WZ       0.037367
     78 H15         -1.8020     0.3750     2.7540 hc         1 3WZ       0.037367
     79 H52         -5.1440    -2.2890     0.1050 h1         1 3WZ       0.044367
     80 H53         -4.1290    -3.0990     1.2970 h1         1 3WZ       0.044367
     81 H54         -5.0750    -1.6730     1.7810 h1         1 3WZ       0.044367
     82 H55         -2.5090    -4.3450    -1.9550 h1         1 3WZ       0.026367
     83 H56         -1.2230    -5.3090    -1.1850 h1         1 3WZ       0.026367
     84 H57         -2.9240    -5.6810    -0.8630 h1         1 3WZ       0.026367
     85 H36          5.0610    -3.6600     1.4840 hc         1 3WZ       0.048700
     86 H37          4.3280    -2.1240     1.9430 hc         1 3WZ       0.048700
     87 H38          5.5930    -0.6430    -2.4240 hc         1 3WZ       0.057700
     88 H33          3.4520    -0.5180    -0.1340 h1         1 3WZ       0.104700
     89 H35          5.6760    -1.5610    -0.0670 hc         1 3WZ       0.062700
     90 H34          5.1210    -3.0130    -0.9000 hc         1 3WZ       0.062700
     91 H20          3.0360    -4.3870     0.2850 h1         1 3WZ       0.038200
     92 H21          2.3670    -3.5260     1.6970 h1         1 3WZ       0.038200
     93 H22          2.5500    -0.7550    -2.4700 h1         1 3WZ       0.084700
     94 H16          6.3560     0.8270    -1.1450 hn         1 3WZ       0.313500
     95 H58          4.9490     3.4280    -0.6810 h1         1 3WZ       0.073700
     96 H28          6.2760     1.8170     1.5540 hc         1 3WZ       0.056700
     97 H29          5.5590     3.4050     1.7130 hc         1 3WZ       0.056700
     98 H23          2.9280     3.2660     0.4190 ha         1 3WZ       0.116500
     99 H61          4.9710     0.2570     2.7620 ha         1 3WZ       0.116500
    100 H24          0.7480     2.2440     1.0170 ha         1 3WZ       0.107500
    101 H60          2.7800    -0.7440     3.3720 ha         1 3WZ       0.107500
    102 H59          0.6700     0.2450     2.4960 ha         1 3WZ       0.091000
    103 C26          2.6370    -3.3480    -3.0510 c3         1 3WZ       0.159900
    104 C15          4.6130     0.0420    -4.2070 c3         1 3WZ      -0.075100
    105 H39          5.3770     0.7800    -4.4800 hc         1 3WZ       0.038367
    106 H30          1.6930    -2.8300    -3.2630 h1         1 3WZ       0.019700
    107 H31          2.8170    -4.0690    -3.8590 h1         1 3WZ       0.019700
    108 H32          2.5300    -3.9200    -2.1230 h1         1 3WZ       0.019700
    109 H40          4.8300    -0.8800    -4.7600 hc         1 3WZ       0.038367
    110 H41          3.6380     0.4200    -4.5390 hc         1 3WZ       0.038367
@<TRIPOS>BOND
     1     1     2 1   
     2     1    49 1   
     3     1    50 1   
     4     2     3 1   
     5     2     5 1   
     6     2     6 1   
     7     3     4 2   
     8     3     7 1   
     9     5    51 1   
    10     5    52 1   
    11     5    53 1   
    12     6    54 1   
    13     6    55 1   
    14     6    56 1   
    15     7     8 1   
    16     7    57 1   
    17     8     9 1   
    18     8    11 1   
    19     8    58 1   
    20     9    10 2   
    21     9    14 1   
    22    11    12 1   
    23    11    13 1   
    24    11    59 1   
    25    12    60 1   
    26    12    61 1   
    27    12    62 1   
    28    13    63 1   
    29    13    64 1   
    30    13    65 1   
    31    14    17 1   
    32    14    25 1   
    33    15    17 1   
    34    15    18 1   
    35    15    20 1   
    36    15    66 1   
    37    16    17 1   
    38    16    22 1   
    39    16    24 1   
    40    16    67 1   
    41    17    68 1   
    42    18    19 1   
    43    18    69 1   
    44    18    70 1   
    45    19    21 2   
    46    19    30 1   
    47    20    26 1   
    48    22    23 1   
    49    22    71 1   
    50    22    72 1   
    51    23    73 1   
    52    23    74 1   
    53    23    75 1   
    54    24    76 1   
    55    24    77 1   
    56    24    78 1   
    57    25    79 1   
    58    25    80 1   
    59    25    81 1   
    60    26    82 1   
    61    26    83 1   
    62    26    84 1   
    63    27    32 1   
    64    27    33 1   
    65    27    85 1   
    66    27    86 1   
    67    28    29 1   
    68    28    34 1   
    69    28    87 1   
    70    28   104 1   
    71    29    36 2   
    72    29    37 1   
    73    30    31 1   
    74    30    33 1   
    75    31    32 1   
    76    31    34 1   
    77    31    88 1   
    78    32    89 1   
    79    32    90 1   
    80    33    91 1   
    81    33    92 1   
    82    34    35 1   
    83    34    93 1   
    84    35   103 1   
    85    37    38 1   
    86    37    94 1   
    87    38    39 1   
    88    38    41 1   
    89    38    95 1   
    90    39    40 1   
    91    39    48 1   
    92    41    42 1   
    93    41    96 1   
    94    41    97 1   
    95    42    43 ar  
    96    42    44 ar  
    97    43    45 ar  
    98    43    98 1   
    99    44    46 ar  
   100    44    99 1   
   101    45    47 ar  
   102    45   100 1   
   103    46    47 ar  
   104    46   101 1   
   105    47   102 1   
   106   103   106 1   
   107   103   107 1   
   108   103   108 1   
   109   104   105 1   
   110   104   109 1   
   111   104   110 1   
@<TRIPOS>SUBSTRUCTURE
     1 3WZ         1 TEMP              0 ****  ****    0 ROOT
