@<TRIPOS>MOLECULE
3X0
   40    43     1     0     0
SMALL
abcg2


@<TRIPOS>ATOM
      1 C1          -2.0270    -1.1200     1.8540 c3         1 3X0      -0.102000
      2 C2          -0.5760    -0.6300     2.0020 c3         1 3X0       0.232800
      3 C3           1.3130     0.1900     0.6690 ca         1 3X0       0.314000
      4 C4           1.8330     0.5810    -0.5730 ca         1 3X0      -0.154000
      5 C5           3.1960     0.6670    -0.7830 ca         1 3X0      -0.071000
      6 C6           4.0720     0.3490     0.2460 ca         1 3X0       0.087000
      7 C7           3.5850    -0.0450     1.4780 ca         1 3X0      -0.071000
      8 N1          -2.2630    -0.7580    -0.6110 na         1 3X0      -0.267800
      9 N2          -2.6710    -2.7800    -1.2840 nc         1 3X0      -0.360000
     10 N3          -2.5270    -2.8040     0.0700 nc         1 3X0      -0.356000
     11 C8           2.2150    -0.1160     1.6900 ca         1 3X0      -0.154000
     12 C10         -1.9810     0.6210    -0.5530 ca         1 3X0      -0.005200
     13 CL           5.7840     0.4490    -0.0190 cl         1 3X0      -0.205000
     14 N           -0.0660     0.0850     0.8400 nh         1 3X0      -0.852200
     15 C9          -0.8850     1.0390     0.2030 ca         1 3X0       0.282000
     16 C14         -0.6260     2.4030     0.3020 ca         1 3X0      -0.120000
     17 C13         -1.4280     3.3240    -0.3540 ca         1 3X0      -0.096000
     18 C12         -2.5180     2.8950    -1.0990 ca         1 3X0      -0.107000
     19 C11         -2.8040     1.5420    -1.1860 ca         1 3X0      -0.104000
     20 C16         -2.2760    -1.5930     0.4640 cd         1 3X0       0.405800
     21 C           -3.0840    -0.1260     2.3460 c3         1 3X0      -0.091100
     22 C15         -2.5110    -1.5550    -1.6920 cd         1 3X0       0.404800
     23 C17         -2.5620    -1.0890    -3.0980 c3         1 3X0      -0.122400
     24 H1          -2.1040    -2.0040     2.4910 hc         1 3X0       0.087700
     25 H2          -0.4970    -0.0310     2.9180 h1         1 3X0       0.051200
     26 H3           0.0530    -1.5100     2.1350 h1         1 3X0       0.051200
     27 H4           1.1670     0.8120    -1.3940 ha         1 3X0       0.121500
     28 H5           3.5700     0.9690    -1.7520 ha         1 3X0       0.128500
     29 H6           4.2620    -0.2880     2.2860 ha         1 3X0       0.128500
     30 H7           1.8700    -0.4010     2.6740 ha         1 3X0       0.121500
     31 H8           0.2160     2.7430     0.8900 ha         1 3X0       0.130000
     32 H9          -1.2080     4.3800    -0.2690 ha         1 3X0       0.123000
     33 H10         -3.1560     3.6100    -1.6000 ha         1 3X0       0.124000
     34 H11         -3.6740     1.2060    -1.7350 ha         1 3X0       0.130000
     35 H12         -3.1140     0.7980     1.7710 hc         1 3X0       0.045033
     36 H13         -4.0750    -0.5780     2.3060 hc         1 3X0       0.045033
     37 H14         -2.8800     0.1360     3.3840 hc         1 3X0       0.045033
     38 H15         -3.5140    -0.6090    -3.3300 hc         1 3X0       0.059367
     39 H16         -1.7690    -0.3740    -3.3130 hc         1 3X0       0.059367
     40 H17         -2.4500    -1.9420    -3.7620 hc         1 3X0       0.059367
@<TRIPOS>BOND
     1     1     2 1   
     2     1    20 1   
     3     1    21 1   
     4     1    24 1   
     5     2    14 1   
     6     2    25 1   
     7     2    26 1   
     8     3     4 ar  
     9     3    11 ar  
    10     3    14 1   
    11     4     5 ar  
    12     4    27 1   
    13     5     6 ar  
    14     5    28 1   
    15     6     7 ar  
    16     6    13 1   
    17     7    11 ar  
    18     7    29 1   
    19     8    12 1   
    20     8    20 1   
    21     8    22 1   
    22     9    10 1   
    23     9    22 2   
    24    10    20 2   
    25    11    30 1   
    26    12    15 ar  
    27    12    19 ar  
    28    14    15 1   
    29    15    16 ar  
    30    16    17 ar  
    31    16    31 1   
    32    17    18 ar  
    33    17    32 1   
    34    18    19 ar  
    35    18    33 1   
    36    19    34 1   
    37    21    35 1   
    38    21    36 1   
    39    21    37 1   
    40    22    23 1   
    41    23    38 1   
    42    23    39 1   
    43    23    40 1   
@<TRIPOS>SUBSTRUCTURE
     1 3X0         1 TEMP              0 ****  ****    0 ROOT
