@<TRIPOS>MOLECULE
3X0
   40    43     1     0     0
SMALL
No Charge or Current Charge


@<TRIPOS>ATOM
      1 C1          -2.1080    -1.1420     1.9460 c3         1 3X0      -0.102000
      2 C2          -0.6680    -0.6120     2.1030 c3         1 3X0       0.232800
      3 C3           1.2380     0.1790     0.6710 ca         1 3X0       0.314000
      4 C4           1.6760     0.3770    -0.6550 ca         1 3X0      -0.154000
      5 C5           3.0470     0.3560    -0.9720 ca         1 3X0      -0.071000
      6 C6           3.9950     0.1360     0.0380 ca         1 3X0       0.087000
      7 C7           3.5750    -0.0610     1.3630 ca         1 3X0      -0.071000
      8 N1          -2.5630    -0.7190    -0.5490 na         1 3X0      -0.267800
      9 N2          -2.0080    -2.6910    -1.3360 nc         1 3X0      -0.360000
     10 N3          -2.0560    -2.7690     0.0510 nc         1 3X0      -0.356000
     11 C8           2.2040    -0.0400     1.6770 ca         1 3X0      -0.154000
     12 C10         -2.1670     0.6280    -0.4620 ca         1 3X0      -0.005200
     13 Cl           5.7090     0.1090    -0.3550 cl         1 3X0      -0.205000
     14 N           -0.1480     0.2040     0.9700 nh         1 3X0      -0.852200
     15 C9          -1.0170     1.0760     0.2580 ca         1 3X0       0.282000
     16 C14         -0.7080     2.4500     0.2630 ca         1 3X0      -0.120000
     17 C13         -1.5180     3.3800    -0.4080 ca         1 3X0      -0.096000
     18 C12         -2.6580     2.9420    -1.0940 ca         1 3X0      -0.107000
     19 C11         -2.9800     1.5760    -1.1180 ca         1 3X0      -0.104000
     20 C16         -2.3090    -1.5480     0.5120 cd         1 3X0       0.405800
     21 C           -3.1950    -0.1760     2.4920 c3         1 3X0      -0.091100
     22 C15         -2.2000    -1.4200    -1.6680 cd         1 3X0       0.404800
     23 C17         -2.1000    -0.8950    -3.0750 c3         1 3X0      -0.122400
     24 H1          -2.1760    -2.0450     2.5640 hc         1 3X0       0.087700
     25 H2          -0.5880    -0.0490     3.0440 h1         1 3X0       0.051200
     26 H3          -0.0280    -1.5000     2.2070 h1         1 3X0       0.051200
     27 H4           0.9530     0.5380    -1.4490 ha         1 3X0       0.121500
     28 H5           3.3720     0.5070    -1.9980 ha         1 3X0       0.128500
     29 H6           4.3110    -0.2270     2.1460 ha         1 3X0       0.128500
     30 H7           1.9010    -0.1790     2.7100 ha         1 3X0       0.121500
     31 H8           0.1670     2.8000     0.8030 ha         1 3X0       0.130000
     32 H9          -1.2650     4.4380    -0.3890 ha         1 3X0       0.123000
     33 H10         -3.2930     3.6600    -1.6090 ha         1 3X0       0.124000
     34 H11         -3.8700     1.2510    -1.6520 ha         1 3X0       0.130000
     35 H12         -3.1530     0.8080     2.0130 hc         1 3X0       0.045033
     36 H13         -4.1960    -0.5940     2.3260 hc         1 3X0       0.045033
     37 H14         -3.0660    -0.0270     3.5710 hc         1 3X0       0.045033
     38 H15         -3.0590    -0.4820    -3.4060 hc         1 3X0       0.059367
     39 H16         -1.3450    -0.1040    -3.1440 hc         1 3X0       0.059367
     40 H17         -1.8170    -1.6890    -3.7760 hc         1 3X0       0.059367
@<TRIPOS>BOND
     1     1     2 1   
     2     1    20 1   
     3     1    21 1   
     4     1    24 1   
     5     2    14 1   
     6     2    25 1   
     7     2    26 1   
     8     3     4 ar  
     9     3    11 ar  
    10     3    14 1   
    11     4     5 ar  
    12     4    27 1   
    13     5     6 ar  
    14     5    28 1   
    15     6     7 ar  
    16     6    13 1   
    17     7    11 ar  
    18     7    29 1   
    19     8    12 1   
    20     8    20 1   
    21     8    22 1   
    22     9    10 1   
    23     9    22 2   
    24    10    20 2   
    25    11    30 1   
    26    12    15 ar  
    27    12    19 ar  
    28    14    15 1   
    29    15    16 ar  
    30    16    17 ar  
    31    16    31 1   
    32    17    18 ar  
    33    17    32 1   
    34    18    19 ar  
    35    18    33 1   
    36    19    34 1   
    37    21    35 1   
    38    21    36 1   
    39    21    37 1   
    40    22    23 1   
    41    23    38 1   
    42    23    39 1   
    43    23    40 1   
@<TRIPOS>SUBSTRUCTURE
     1 3X0         1 TEMP              0 ****  ****    0 ROOT
