@<TRIPOS>MOLECULE
3X1
   35    34     1     0     0
SMALL
abcg2


@<TRIPOS>ATOM
      1 C1          -5.7720    -0.1960     0.2340 c          1 3X1       0.699200
      2 C2          -4.4500     0.5340     0.2360 ce         1 3X1      -0.249200
      3 C3          -3.4260     0.2280    -0.5570 c2         1 3X1      -0.278200
      4 C4          -2.1040     0.9230    -0.5690 c3         1 3X1      -0.030200
      5 C5          -0.9410    -0.0230    -0.2700 c3         1 3X1      -0.073400
      6 C6           0.4100     0.6820    -0.2940 c3         1 3X1      -0.076400
      7 C8           2.9310     0.4580    -0.0480 c3         1 3X1      -0.074400
      8 O2          -5.9120    -1.1510    -0.5570 o          1 3X1      -0.733000
      9 O1          -6.6250     0.2270     1.0440 o          1 3X1      -0.733000
     10 C7           1.5870    -0.2600    -0.0790 c3         1 3X1      -0.074400
     11 C9           4.1190    -0.4880     0.0820 c3         1 3X1      -0.075400
     12 C10          5.4580     0.2360     0.1560 c3         1 3X1      -0.075400
     13 C11          6.6520    -0.7080     0.2340 c3         1 3X1      -0.075400
     14 C12          7.9810     0.0290     0.3210 c3         1 3X1      -0.087100
     15 H1          -4.3470     1.3600     0.9380 ha         1 3X1       0.136000
     16 H2          -3.5380    -0.6010    -1.2530 ha         1 3X1       0.179000
     17 H3          -1.9400     1.3680    -1.5580 hc         1 3X1       0.021700
     18 H4          -2.1070     1.7500     0.1480 hc         1 3X1       0.021700
     19 H5          -1.0930    -0.4880     0.7100 hc         1 3X1       0.038700
     20 H6          -0.9420    -0.8400    -1.0000 hc         1 3X1       0.038700
     21 H7           0.5320     1.1960    -1.2540 hc         1 3X1       0.030200
     22 H8           0.4220     1.4650     0.4720 hc         1 3X1       0.030200
     23 H9           3.0450     1.0550    -0.9600 hc         1 3X1       0.034200
     24 H10          2.9400     1.1720     0.7820 hc         1 3X1       0.034200
     25 H12          1.4500    -0.8100     0.8590 hc         1 3X1       0.035700
     26 H13          1.5960    -1.0160    -0.8730 hc         1 3X1       0.035700
     27 H14          3.9940    -1.1100     0.9750 hc         1 3X1       0.036200
     28 H15          4.1250    -1.1790    -0.7680 hc         1 3X1       0.036200
     29 H16          5.5690     0.8860    -0.7200 hc         1 3X1       0.035200
     30 H17          5.4640     0.9010     1.0270 hc         1 3X1       0.035200
     31 H18          6.5380    -1.3650     1.1020 hc         1 3X1       0.035700
     32 H19          6.6520    -1.3630    -0.6430 hc         1 3X1       0.035700
     33 H20          8.8230    -0.6620     0.3730 hc         1 3X1       0.028367
     34 H21          8.1330     0.6700    -0.5500 hc         1 3X1       0.028367
     35 H22          8.0210     0.6650     1.2070 hc         1 3X1       0.028367
@<TRIPOS>BOND
     1     1     2 1   
     2     1     8 1   
     3     1     9 1   
     4     2     3 2   
     5     2    15 1   
     6     3     4 1   
     7     3    16 1   
     8     4     5 1   
     9     4    17 1   
    10     4    18 1   
    11     5     6 1   
    12     5    19 1   
    13     5    20 1   
    14     6    10 1   
    15     6    21 1   
    16     6    22 1   
    17     7    10 1   
    18     7    11 1   
    19     7    23 1   
    20     7    24 1   
    21    10    25 1   
    22    10    26 1   
    23    11    12 1   
    24    11    27 1   
    25    11    28 1   
    26    12    13 1   
    27    12    29 1   
    28    12    30 1   
    29    13    14 1   
    30    13    31 1   
    31    13    32 1   
    32    14    33 1   
    33    14    34 1   
    34    14    35 1   
@<TRIPOS>SUBSTRUCTURE
     1 3X1         1 TEMP              0 ****  ****    0 ROOT
