@<TRIPOS>MOLECULE
3X1
   35    34     1     0     0
SMALL
No Charge or Current Charge


@<TRIPOS>ATOM
      1 C1          -5.5880    -0.4850     0.4620 c          1 3X1       0.699200
      2 C2          -4.2510     0.1900     0.4200 ce         1 3X1      -0.249200
      3 C3          -3.5160     0.4230    -0.6970 c2         1 3X1      -0.278200
      4 C4          -2.1650     1.1050    -0.7340 c3         1 3X1      -0.030200
      5 C5          -1.0090     0.1340    -0.4120 c3         1 3X1      -0.073400
      6 C6           0.3800     0.8090    -0.4510 c3         1 3X1      -0.076400
      7 C8           2.9230     0.5100    -0.1660 c3         1 3X1      -0.074400
      8 O2          -6.0900    -0.8710    -0.5830 o          1 3X1      -0.733000
      9 O1          -6.1190    -0.6170     1.5520 o          1 3X1      -0.733000
     10 C7           1.5340    -0.1650    -0.1270 c3         1 3X1      -0.074400
     11 C9           4.0780    -0.4630     0.1580 c3         1 3X1      -0.075400
     12 C10          5.4660     0.2110     0.1190 c3         1 3X1      -0.075400
     13 C11          6.6210    -0.7620     0.4430 c3         1 3X1      -0.075400
     14 C12          8.0060    -0.0890     0.4040 c3         1 3X1      -0.087100
     15 H1          -3.8720     0.5050     1.3900 ha         1 3X1       0.136000
     16 H2          -3.8850     0.1100    -1.6770 ha         1 3X1       0.179000
     17 H3          -1.9990     1.5430    -1.7270 hc         1 3X1       0.021700
     18 H4          -2.1460     1.9380    -0.0200 hc         1 3X1       0.021700
     19 H5          -1.1720    -0.2990     0.5830 hc         1 3X1       0.038700
     20 H6          -1.0280    -0.6950    -1.1300 hc         1 3X1       0.038700
     21 H7           0.5420     1.2420    -1.4460 hc         1 3X1       0.030200
     22 H8           0.3970     1.6390     0.2670 hc         1 3X1       0.030200
     23 H9           3.0850     0.9430    -1.1610 hc         1 3X1       0.034200
     24 H10          2.9400     1.3400     0.5520 hc         1 3X1       0.034200
     25 H12          1.3720    -0.5980     0.8680 hc         1 3X1       0.035700
     26 H13          1.5170    -0.9950    -0.8450 hc         1 3X1       0.035700
     27 H14          3.9150    -0.8960     1.1530 hc         1 3X1       0.036200
     28 H15          4.0600    -1.2930    -0.5600 hc         1 3X1       0.036200
     29 H16          5.6290     0.6440    -0.8760 hc         1 3X1       0.035200
     30 H17          5.4830     1.0410     0.8370 hc         1 3X1       0.035200
     31 H18          6.4630    -1.1950     1.4380 hc         1 3X1       0.035700
     32 H19          6.6080    -1.5920    -0.2740 hc         1 3X1       0.035700
     33 H20          8.7910    -0.8170     0.6400 hc         1 3X1       0.028367
     34 H21          8.2090     0.3250    -0.5910 hc         1 3X1       0.028367
     35 H22          8.0630     0.7250     1.1370 hc         1 3X1       0.028367
@<TRIPOS>BOND
     1     1     2 1   
     2     1     8 1   
     3     1     9 1   
     4     2     3 2   
     5     2    15 1   
     6     3     4 1   
     7     3    16 1   
     8     4     5 1   
     9     4    17 1   
    10     4    18 1   
    11     5     6 1   
    12     5    19 1   
    13     5    20 1   
    14     6    10 1   
    15     6    21 1   
    16     6    22 1   
    17     7    10 1   
    18     7    11 1   
    19     7    23 1   
    20     7    24 1   
    21    10    25 1   
    22    10    26 1   
    23    11    12 1   
    24    11    27 1   
    25    11    28 1   
    26    12    13 1   
    27    12    29 1   
    28    12    30 1   
    29    13    14 1   
    30    13    31 1   
    31    13    32 1   
    32    14    33 1   
    33    14    34 1   
    34    14    35 1   
@<TRIPOS>SUBSTRUCTURE
     1 3X1         1 TEMP              0 ****  ****    0 ROOT
