@<TRIPOS>MOLECULE
3X2
   35    37     1     0     0
SMALL
abcg2


@<TRIPOS>ATOM
      1 C1          33.7080   -21.5040    23.5460 ca         1 3X2      -0.105000
      2 C2          33.9990   -21.1360    22.2400 ca         1 3X2      -0.113000
      3 C3          32.9880   -21.1430    21.2800 ca         1 3X2      -0.156000
      4 C4          31.7030   -21.5070    21.6380 ca         1 3X2      -0.090000
      5 C5          31.3890   -21.8510    22.9630 ca         1 3X2      -0.142900
      6 C6          32.4110   -21.8470    23.9330 ca         1 3X2      -0.079600
      7 C7          32.1680   -22.1970    25.3980 c          1 3X2       0.699600
      8 O8          31.2280   -21.5990    25.9800 o          1 3X2      -0.712500
      9 O9          32.9490   -23.0400    25.9020 o          1 3X2      -0.712500
     10 C10         30.0300   -22.2500    23.3230 ce         1 3X2       0.460800
     11 N11         29.0780   -22.2360    22.4650 n2         1 3X2      -0.469400
     12 N12         27.8560   -22.6370    22.8800 nu         1 3X2      -0.614200
     13 C13         26.8250   -22.6770    21.9970 cc         1 3X2       0.748300
     14 N14         25.6240   -23.0820    22.3050 nd         1 3X2      -0.738000
     15 C15         24.7930   -23.0190    21.2000 cd         1 3X2       0.372500
     16 C16         25.3730   -22.5660    20.0570 cc         1 3X2      -0.306000
     17 S17         27.0440   -22.1820    20.3340 ss         1 3X2      -0.042400
     18 C18         23.3910   -23.4710    21.2950 ca         1 3X2      -0.087500
     19 C19         22.4680   -22.9350    22.1990 ca         1 3X2       0.151000
     20 C20         21.1590   -23.3930    22.2670 ca         1 3X2      -0.114000
     21 C21         20.7400   -24.4030    21.4090 ca         1 3X2      -0.108000
     22 C22         21.6300   -24.9430    20.4870 ca         1 3X2      -0.119000
     23 C23         22.9370   -24.4800    20.4380 ca         1 3X2      -0.093000
     24 CL1         22.9210   -21.6060    23.2490 cl         1 3X2      -0.195000
     25 H1          34.4920   -21.5210    24.2910 ha         1 3X2       0.123000
     26 H2          35.0090   -20.8550    21.9680 ha         1 3X2       0.090000
     27 H3          33.2070   -20.8730    20.2540 ha         1 3X2       0.090000
     28 H4          30.9190   -21.5360    20.8930 ha         1 3X2       0.108000
     29 H6          29.8520   -22.5590    24.3510 h4         1 3X2       0.037800
     30 H7          27.6970   -22.9540    23.8320 hn         1 3X2       0.508000
     31 H8          24.9250   -22.4270    19.0870 h4         1 3X2       0.148000
     32 H9          20.4740   -22.9510    22.9770 ha         1 3X2       0.123000
     33 H10         19.7200   -24.7600    21.4630 ha         1 3X2       0.109000
     34 H11         21.3100   -25.7280    19.8140 ha         1 3X2       0.111000
     35 H12         23.6390   -24.9100    19.7350 ha         1 3X2       0.120000
@<TRIPOS>BOND
     1     1     2 ar  
     2     1     6 ar  
     3     1    25 1   
     4     2     3 ar  
     5     2    26 1   
     6     3     4 ar  
     7     3    27 1   
     8     4     5 ar  
     9     4    28 1   
    10     5     6 ar  
    11     5    10 1   
    12     6     7 1   
    13     7     8 1   
    14     7     9 1   
    15    10    11 2   
    16    10    29 1   
    17    11    12 1   
    18    12    13 1   
    19    12    30 1   
    20    13    14 2   
    21    13    17 1   
    22    14    15 1   
    23    15    16 2   
    24    15    18 1   
    25    16    17 1   
    26    16    31 1   
    27    18    19 ar  
    28    18    23 ar  
    29    19    20 ar  
    30    19    24 1   
    31    20    21 ar  
    32    20    32 1   
    33    21    22 ar  
    34    21    33 1   
    35    22    23 ar  
    36    22    34 1   
    37    23    35 1   
@<TRIPOS>SUBSTRUCTURE
     1 3X2         1 TEMP              0 ****  ****    0 ROOT
