@<TRIPOS>MOLECULE
3X2
   35    37     1     0     0
SMALL
No Charge or Current Charge


@<TRIPOS>ATOM
      1 C1          33.7820   -21.2980    23.7090 ca         1 3X2      -0.105000
      2 C2          34.2170   -21.2870    22.3750 ca         1 3X2      -0.113000
      3 C3          33.3040   -21.5370    21.3430 ca         1 3X2      -0.156000
      4 C4          31.9600   -21.8080    21.6420 ca         1 3X2      -0.090000
      5 C5          31.5040   -21.8360    22.9830 ca         1 3X2      -0.142900
      6 C6          32.4310   -21.5600    24.0290 ca         1 3X2      -0.079600
      7 C7          32.0170   -21.5250    25.4860 c          1 3X2       0.699600
      8 O8          31.0940   -20.7910    25.8100 o          1 3X2      -0.712500
      9 O9          32.6530   -22.1990    26.2830 o          1 3X2      -0.712500
     10 C10         30.0650   -22.1500    23.2880 ce         1 3X2       0.460800
     11 N11         29.1680   -22.2560    22.3420 n2         1 3X2      -0.469400
     12 N12         27.8540   -22.5890    22.6250 nu         1 3X2      -0.614200
     13 C13         26.8490   -22.7240    21.6990 cc         1 3X2       0.748300
     14 N14         25.6560   -23.0490    22.1440 nd         1 3X2      -0.738000
     15 C15         24.7560   -23.1380    21.0900 cd         1 3X2       0.372500
     16 C16         25.3310   -22.9020    19.8520 cc         1 3X2      -0.306000
     17 S17         27.0220   -22.5100    19.9810 ss         1 3X2      -0.042400
     18 C18         23.3250   -23.5260    21.2890 ca         1 3X2      -0.087500
     19 C19         22.6870   -23.6470    22.5650 ca         1 3X2       0.151000
     20 C20         21.3390   -24.0430    22.6540 ca         1 3X2      -0.114000
     21 C21         20.5940   -24.3310    21.5040 ca         1 3X2      -0.108000
     22 C22         21.1980   -24.2210    20.2490 ca         1 3X2      -0.119000
     23 C23         22.5410   -23.8270    20.1430 ca         1 3X2      -0.093000
     24 Cl1         23.4580   -23.2850    24.1160 cl         1 3X2      -0.195000
     25 H1          34.4950   -21.0920    24.5040 ha         1 3X2       0.123000
     26 H2          35.2590   -21.0800    22.1440 ha         1 3X2       0.090000
     27 H3          33.6380   -21.5260    20.3080 ha         1 3X2       0.090000
     28 H4          31.2740   -22.0080    20.8210 ha         1 3X2       0.108000
     29 H6          29.8050   -22.3720    24.3250 h4         1 3X2       0.037800
     30 H7          27.4880   -22.7700    23.5640 hn         1 3X2       0.508000
     31 H8          24.8810   -22.9130    18.8710 h4         1 3X2       0.148000
     32 H9          20.8670   -24.1230    23.6290 ha         1 3X2       0.123000
     33 H10         19.5530   -24.6360    21.5870 ha         1 3X2       0.109000
     34 H11         20.6270   -24.4460    19.3500 ha         1 3X2       0.111000
     35 H12         22.9640   -23.7720    19.1450 ha         1 3X2       0.120000
@<TRIPOS>BOND
     1     1     2 ar  
     2     1     6 ar  
     3     1    25 1   
     4     2     3 ar  
     5     2    26 1   
     6     3     4 ar  
     7     3    27 1   
     8     4     5 ar  
     9     4    28 1   
    10     5     6 ar  
    11     5    10 1   
    12     6     7 1   
    13     7     8 1   
    14     7     9 1   
    15    10    11 2   
    16    10    29 1   
    17    11    12 1   
    18    12    13 1   
    19    12    30 1   
    20    13    14 2   
    21    13    17 1   
    22    14    15 1   
    23    15    16 2   
    24    15    18 1   
    25    16    17 1   
    26    16    31 1   
    27    18    19 ar  
    28    18    23 ar  
    29    19    20 ar  
    30    19    24 1   
    31    20    21 ar  
    32    20    32 1   
    33    21    22 ar  
    34    21    33 1   
    35    22    23 ar  
    36    22    34 1   
    37    23    35 1   
@<TRIPOS>SUBSTRUCTURE
     1 3X2         1 TEMP              0 ****  ****    0 ROOT
