@<TRIPOS>MOLECULE
3X3
   38    41     1     0     0
SMALL
abcg2


@<TRIPOS>ATOM
      1 CAB         -4.0750    -1.6790     0.7830 ca         1 3X3      -0.093000
      2 CAA         -5.3890    -2.0310     0.5220 ca         1 3X3      -0.103500
      3 CAG         -6.1560    -1.2900    -0.3670 ca         1 3X3      -0.102000
      4 CAH         -5.6010    -0.1870    -1.0020 ca         1 3X3      -0.103500
      5 CAI         -4.2850     0.1780    -0.7570 ca         1 3X3      -0.093000
      6 CAC         -3.5350    -0.5750     0.1350 ca         1 3X3       0.005800
      7 NAD         -2.1910    -0.2080     0.3890 na         1 3X3       0.342800
      8 NAJ         -1.6790     0.9470     0.0460 nc         1 3X3      -0.526800
      9 NAE         -1.3350    -1.0000     0.9780 nc         1 3X3      -0.179800
     10 NAF         -0.2190    -0.3620     1.0400 nd         1 3X3      -0.347000
     11 CAK         -0.4320     0.8390     0.4640 cd         1 3X3       0.568500
     12 CAN          0.5350     1.9290     0.3530 ca         1 3X3      -0.161500
     13 CAO          0.0880     3.2420     0.4820 ca         1 3X3      -0.042000
     14 CAP          0.9640     4.3110     0.3860 ca         1 3X3      -0.157000
     15 CAX          2.3070     4.0640     0.1550 ca         1 3X3      -0.054000
     16 CAW          2.7770     2.7650     0.0140 ca         1 3X3      -0.214000
     17 CAV          1.8970     1.6890     0.1060 ca         1 3X3       0.184100
     18 OAU          2.2600     0.4080    -0.0560 os         1 3X3      -0.317100
     19 CAT          3.6330     0.1040    -0.2700 c3         1 3X3       0.141300
     20 CAS          3.7620    -1.3610    -0.4120 cc         1 3X3       0.112300
     21 OAR          3.5570    -2.1250     0.6830 os         1 3X3      -0.215000
     22 CAQ          3.7300    -3.4110     0.3200 cc         1 3X3       0.138900
     23 CAM          4.0700    -2.1470    -1.4720 cd         1 3X3      -0.157000
     24 CAL          4.0510    -3.4910    -0.9920 cd         1 3X3      -0.196000
     25 HAB         -3.4850    -2.2530     1.4830 ha         1 3X3       0.143500
     26 HAA         -5.8160    -2.8900     1.0240 ha         1 3X3       0.121500
     27 HAG         -7.1820    -1.5690    -0.5630 ha         1 3X3       0.120000
     28 HAH         -6.1900     0.3940    -1.6980 ha         1 3X3       0.121500
     29 HAI         -3.8540     1.0330    -1.2580 ha         1 3X3       0.143500
     30 HAO         -0.9610     3.4210     0.6760 ha         1 3X3       0.127000
     31 HAP          0.6000     5.3240     0.4980 ha         1 3X3       0.119000
     32 HAX          3.0080     4.8840     0.0820 ha         1 3X3       0.113000
     33 HAW          3.8300     2.6110    -0.1760 ha         1 3X3       0.118000
     34 HAT1         4.0030     0.5770    -1.1840 h1         1 3X3       0.052200
     35 HAT2         4.2350     0.4740     0.5680 h1         1 3X3       0.052200
     36 HAM          4.2830    -1.8100    -2.4740 ha         1 3X3       0.140000
     37 HAQ          3.5940    -4.1540     1.0890 h4         1 3X3       0.054100
     38 HAL          4.2500    -4.3910    -1.5500 ha         1 3X3       0.142000
@<TRIPOS>BOND
     1     1     2 ar  
     2     1     6 ar  
     3     1    25 1   
     4     2     3 ar  
     5     2    26 1   
     6     3     4 ar  
     7     3    27 1   
     8     4     5 ar  
     9     4    28 1   
    10     5     6 ar  
    11     5    29 1   
    12     6     7 1   
    13     7     8 1   
    14     7     9 1   
    15     8    11 2   
    16     9    10 2   
    17    10    11 1   
    18    11    12 1   
    19    12    13 ar  
    20    12    17 ar  
    21    13    14 ar  
    22    13    30 1   
    23    14    15 ar  
    24    14    31 1   
    25    15    16 ar  
    26    15    32 1   
    27    16    17 ar  
    28    16    33 1   
    29    17    18 1   
    30    18    19 1   
    31    19    20 1   
    32    19    34 1   
    33    19    35 1   
    34    20    21 1   
    35    20    23 2   
    36    21    22 1   
    37    22    24 2   
    38    22    37 1   
    39    23    24 1   
    40    23    36 1   
    41    24    38 1   
@<TRIPOS>SUBSTRUCTURE
     1 3X3         1 TEMP              0 ****  ****    0 ROOT
