@<TRIPOS>MOLECULE
3X3
   38    41     1     0     0
SMALL
No Charge or Current Charge


@<TRIPOS>ATOM
      1 CAB         -4.2440    -1.4060     0.8550 ca         1 3X3      -0.093000
      2 CAA         -5.6060    -1.7100     0.6820 ca         1 3X3      -0.103500
      3 CAG         -6.3170    -1.1680    -0.4020 ca         1 3X3      -0.102000
      4 CAH         -5.6650    -0.3200    -1.3140 ca         1 3X3      -0.103500
      5 CAI         -4.3040    -0.0140    -1.1430 ca         1 3X3      -0.093000
      6 CAC         -3.5810    -0.5560    -0.0570 ca         1 3X3       0.005800
      7 NAD         -2.2260    -0.2530     0.1130 na         1 3X3       0.342800
      8 NAJ         -1.7660     1.0150     0.0460 nc         1 3X3      -0.526800
      9 NAE         -1.3040    -1.2140     0.3550 nc         1 3X3      -0.179800
     10 NAF         -0.1900    -0.5470     0.4530 nd         1 3X3      -0.347000
     11 CAK         -0.4780     0.7970     0.2550 cd         1 3X3       0.568500
     12 CAN          0.5120     1.9030     0.3050 ca         1 3X3      -0.161500
     13 CAO          0.0450     3.2320     0.4560 ca         1 3X3      -0.042000
     14 CAP          0.9400     4.3110     0.5170 ca         1 3X3      -0.157000
     15 CAX          2.3180     4.0890     0.4250 ca         1 3X3      -0.054000
     16 CAW          2.8030     2.7820     0.2680 ca         1 3X3      -0.214000
     17 CAV          1.9120     1.6840     0.2060 ca         1 3X3       0.184100
     18 OAU          2.3900     0.4010     0.0240 os         1 3X3      -0.317100
     19 CAT          3.7900     0.0940    -0.1120 c3         1 3X3       0.141300
     20 CAS          3.9470    -1.3950    -0.2900 cc         1 3X3       0.112300
     21 OAR          5.1490    -1.9870     0.0340 os         1 3X3      -0.215000
     22 CAQ          5.0160    -3.3330    -0.2290 cc         1 3X3       0.138900
     23 CAM          3.0780    -2.3480    -0.7510 cd         1 3X3      -0.157000
     24 CAL          3.7600    -3.5820    -0.7100 cd         1 3X3      -0.196000
     25 HAB         -3.7050    -1.8300     1.7000 ha         1 3X3       0.143500
     26 HAA         -6.1110    -2.3660     1.3880 ha         1 3X3       0.121500
     27 HAG         -7.3710    -1.4030    -0.5350 ha         1 3X3       0.120000
     28 HAH         -6.2150     0.1010    -2.1530 ha         1 3X3       0.121500
     29 HAI         -3.8070     0.6420    -1.8550 ha         1 3X3       0.143500
     30 HAO         -1.0200     3.4390     0.5370 ha         1 3X3       0.127000
     31 HAP          0.5610     5.3240     0.6370 ha         1 3X3       0.119000
     32 HAX          3.0100     4.9270     0.4710 ha         1 3X3       0.113000
     33 HAW          3.8770     2.6450     0.1930 ha         1 3X3       0.118000
     34 HAT1         4.2170     0.6030    -0.9850 h1         1 3X3       0.052200
     35 HAT2         4.3440     0.4060     0.7820 h1         1 3X3       0.052200
     36 HAM          2.0580    -2.1770    -1.0810 ha         1 3X3       0.140000
     37 HAQ          5.8640    -3.9770    -0.0350 h4         1 3X3       0.054100
     38 HAL          3.3690    -4.5510    -1.0040 ha         1 3X3       0.142000
@<TRIPOS>BOND
     1     1     2 ar  
     2     1     6 ar  
     3     1    25 1   
     4     2     3 ar  
     5     2    26 1   
     6     3     4 ar  
     7     3    27 1   
     8     4     5 ar  
     9     4    28 1   
    10     5     6 ar  
    11     5    29 1   
    12     6     7 1   
    13     7     8 1   
    14     7     9 1   
    15     8    11 2   
    16     9    10 2   
    17    10    11 1   
    18    11    12 1   
    19    12    13 ar  
    20    12    17 ar  
    21    13    14 ar  
    22    13    30 1   
    23    14    15 ar  
    24    14    31 1   
    25    15    16 ar  
    26    15    32 1   
    27    16    17 ar  
    28    16    33 1   
    29    17    18 1   
    30    18    19 1   
    31    19    20 1   
    32    19    34 1   
    33    19    35 1   
    34    20    21 1   
    35    20    23 2   
    36    21    22 1   
    37    22    24 2   
    38    22    37 1   
    39    23    24 1   
    40    23    36 1   
    41    24    38 1   
@<TRIPOS>SUBSTRUCTURE
     1 3X3         1 TEMP              0 ****  ****    0 ROOT
