@<TRIPOS>MOLECULE
3X4
   55    56     1     0     0
SMALL
No Charge or Current Charge


@<TRIPOS>ATOM
      1 C3           1.9910    -1.2690     0.1110 c          1 3X4       0.586100
      2 C4           2.1580     0.1580    -0.4470 c3         1 3X4       0.013000
      3 C5           3.9250     1.4460     0.8410 c          1 3X4       0.594100
      4 C6           5.3510     1.8000     0.5820 ca         1 3X4      -0.137600
      5 C7           6.2600     2.5190     1.3720 ca         1 3X4      -0.046500
      6 C8           7.5670     2.7030     0.8690 ca         1 3X4      -0.102000
      7 C9           7.9360     2.1760    -0.3930 ca         1 3X4      -0.102000
      8 C10          7.0060     1.4540    -1.1730 ca         1 3X4      -0.046500
      9 C11          5.7140     1.2820    -0.6560 ca         1 3X4      -0.137600
     10 C12          4.5330     0.5780    -1.2350 c          1 3X4       0.594100
     11 O            2.9100    -1.8820     0.6360 o          1 3X4      -0.590100
     12 N1           3.5210     0.7310    -0.2870 n          1 3X4      -0.372400
     13 N            0.7150    -1.7900    -0.0430 ns         1 3X4      -0.505900
     14 C1           0.2470    -3.1630     0.3180 c3         1 3X4       0.052400
     15 C13         -1.3220    -3.2480     0.1820 c          1 3X4       0.580100
     16 O3          -1.9160    -4.3020    -0.0080 o          1 3X4      -0.602100
     17 C2           0.9150    -4.1730    -0.6530 c3         1 3X4      -0.096100
     18 C            0.5930    -3.5150     1.7900 c3         1 3X4      -0.096100
     19 N3          -8.2160     0.7470     0.8060 n8         1 3X4      -0.993200
     20 C18         -7.4120     1.4080    -0.2860 c3         1 3X4       0.020500
     21 C24         -7.7240     2.9390    -0.5670 c          1 3X4       0.722000
     22 O6          -7.6010     3.7410     0.3530 o          1 3X4      -0.731500
     23 C17         -5.8940     1.1900    -0.0380 c3         1 3X4      -0.098400
     24 C16         -5.4370    -0.2890    -0.0910 c3         1 3X4      -0.076400
     25 C15         -3.9110    -0.4540     0.0870 c3         1 3X4      -0.095400
     26 C14         -3.4580    -1.9250     0.0320 c3         1 3X4       0.096000
     27 N2          -2.0100    -2.0480     0.2010 ns         1 3X4      -0.500900
     28 O7          -8.1430     3.2540    -1.6740 o          1 3X4      -0.731500
     29 H4           1.8930     0.1330    -1.5110 h1         1 3X4       0.087200
     30 H5           1.4280     0.8010     0.0610 h1         1 3X4       0.087200
     31 H6           5.9690     2.9210     2.3400 ha         1 3X4       0.137000
     32 H7           8.2960     3.2560     1.4570 ha         1 3X4       0.118500
     33 H8           8.9470     2.3270    -0.7660 ha         1 3X4       0.118500
     34 H9           7.2830     1.0450    -2.1430 ha         1 3X4       0.137000
     35 H27          0.0810    -1.2100    -0.5820 hn         1 3X4       0.315500
     36 H1           0.6400    -3.9520    -1.6920 hc         1 3X4       0.052367
     37 H2           2.0080    -4.1370    -0.5770 hc         1 3X4       0.052367
     38 H3           0.6020    -5.2000    -0.4310 hc         1 3X4       0.052367
     39 H24          0.1230    -4.4630     2.0800 hc         1 3X4       0.052367
     40 H25          1.6710    -3.6310     1.9460 hc         1 3X4       0.052367
     41 H26          0.2270    -2.7370     2.4710 hc         1 3X4       0.052367
     42 H15         -7.6570     0.8780    -1.2170 h1         1 3X4       0.044700
     43 H19         -5.3390     1.7490    -0.8020 hc         1 3X4       0.043200
     44 H20         -5.6130     1.6280     0.9290 hc         1 3X4       0.043200
     45 H21         -5.7340    -0.7240    -1.0530 hc         1 3X4       0.032200
     46 H22         -5.9470    -0.8630     0.6920 hc         1 3X4       0.032200
     47 H10         -3.6110    -0.0210     1.0500 hc         1 3X4       0.039700
     48 H11         -3.3930     0.1110    -0.6980 hc         1 3X4       0.039700
     49 H12         -3.9570    -2.4950     0.8280 h1         1 3X4       0.050700
     50 H13         -3.7400    -2.3610    -0.9350 h1         1 3X4       0.050700
     51 H23         -1.4820    -1.2190     0.4410 hn         1 3X4       0.320500
     52 O1           4.4590    -0.0080    -2.3060 o          1 3X4      -0.482000
     53 H16         -7.8170    -0.1780     0.9990 hn         1 3X4       0.377500
     54 O2           3.2490     1.7190     1.8220 o          1 3X4      -0.482000
     55 H17         -8.0700     1.2680     1.6790 hn         1 3X4       0.377500
@<TRIPOS>BOND
     1     1     2 1   
     2     1    11 2   
     3     1    13 1   
     4     2    12 1   
     5     2    29 1   
     6     2    30 1   
     7     3     4 1   
     8     3    12 1   
     9     3    54 2   
    10     4     5 ar  
    11     4     9 ar  
    12     5     6 ar  
    13     5    31 1   
    14     6     7 ar  
    15     6    32 1   
    16     7     8 ar  
    17     7    33 1   
    18     8     9 ar  
    19     8    34 1   
    20     9    10 1   
    21    10    12 1   
    22    10    52 2   
    23    13    14 1   
    24    13    35 1   
    25    14    15 1   
    26    14    17 1   
    27    14    18 1   
    28    15    16 2   
    29    15    27 1   
    30    17    36 1   
    31    17    37 1   
    32    17    38 1   
    33    18    39 1   
    34    18    40 1   
    35    18    41 1   
    36    19    20 1   
    37    19    53 1   
    38    19    55 1   
    39    20    21 1   
    40    20    23 1   
    41    20    42 1   
    42    21    22 1   
    43    21    28 1   
    44    23    24 1   
    45    23    43 1   
    46    23    44 1   
    47    24    25 1   
    48    24    45 1   
    49    24    46 1   
    50    25    26 1   
    51    25    47 1   
    52    25    48 1   
    53    26    27 1   
    54    26    49 1   
    55    26    50 1   
    56    27    51 1   
@<TRIPOS>SUBSTRUCTURE
     1 3X4         1 TEMP              0 ****  ****    0 ROOT
