@<TRIPOS>MOLECULE
3X4
   55    56     1     0     0
SMALL
abcg2


@<TRIPOS>ATOM
      1 C3           1.9520    -0.9310    -0.0090 c          1 3X4       0.586100
      2 C4           2.1780     0.3730    -0.7750 c3         1 3X4       0.013000
      3 C5           3.8860     1.5950     0.5450 c          1 3X4       0.594100
      4 C6           5.3610     1.7030     0.4770 ca         1 3X4      -0.137600
      5 C7           6.2460     2.3590     1.3050 ca         1 3X4      -0.046500
      6 C8           7.6000     2.2710     0.9860 ca         1 3X4      -0.102000
      7 C9           8.0340     1.5510    -0.1230 ca         1 3X4      -0.102000
      8 C10          7.1290     0.8900    -0.9520 ca         1 3X4      -0.046500
      9 C11          5.7930     0.9840    -0.6260 ca         1 3X4      -0.137600
     10 C12          4.6040     0.3950    -1.2820 c          1 3X4       0.594100
     11 O            2.7850    -1.3480     0.7720 o          1 3X4      -0.590100
     12 N1           3.5090     0.8510    -0.5630 n          1 3X4      -0.372400
     13 N            0.7650    -1.5040    -0.2750 ns         1 3X4      -0.505900
     14 C1           0.3100    -2.8070     0.2180 c3         1 3X4       0.052400
     15 C13         -1.1940    -2.9220    -0.0980 c          1 3X4       0.580100
     16 O3          -1.6880    -3.9810    -0.4520 o          1 3X4      -0.602100
     17 C2           1.0770    -3.9340    -0.4670 c3         1 3X4      -0.096100
     18 C            0.4290    -2.9190     1.7450 c3         1 3X4      -0.096100
     19 N3          -8.2940     0.3670     0.8730 n8         1 3X4      -0.993200
     20 C18         -7.5350     1.1010    -0.1280 c3         1 3X4       0.020500
     21 C24         -7.9700     2.5840    -0.1520 c          1 3X4       0.722000
     22 O6          -8.4560     3.0540     0.8970 o          1 3X4      -0.731500
     23 C17         -6.0090     1.0480     0.0540 c3         1 3X4      -0.098400
     24 C16         -5.4210    -0.3510    -0.0910 c3         1 3X4      -0.076400
     25 C15         -3.9070    -0.3810     0.0740 c3         1 3X4      -0.095400
     26 C14         -3.3600    -1.7900    -0.0730 c3         1 3X4       0.096000
     27 N2          -1.9190    -1.8110     0.0890 ns         1 3X4      -0.500900
     28 O7          -7.7570     3.2040    -1.2130 o          1 3X4      -0.731500
     29 H4           2.0090     0.2300    -1.8430 h1         1 3X4       0.087200
     30 H5           1.4640     1.1260    -0.4380 h1         1 3X4       0.087200
     31 H6           5.9110     2.9180     2.1680 ha         1 3X4       0.137000
     32 H7           8.3280     2.7710     1.6120 ha         1 3X4       0.118500
     33 H8           9.0920     1.5020    -0.3440 ha         1 3X4       0.118500
     34 H9           7.4680     0.3300    -1.8130 ha         1 3X4       0.137000
     35 H27          0.2730    -1.1430    -1.0800 hn         1 3X4       0.315500
     36 H1           0.9500    -3.9010    -1.5490 hc         1 3X4       0.052367
     37 H2           2.1390    -3.8400    -0.2440 hc         1 3X4       0.052367
     38 H3           0.7460    -4.9080    -0.1130 hc         1 3X4       0.052367
     39 H24         -0.1190    -3.7990     2.0840 hc         1 3X4       0.052367
     40 H25          1.4640    -3.0300     2.0550 hc         1 3X4       0.052367
     41 H26          0.0120    -2.0450     2.2460 hc         1 3X4       0.052367
     42 H15         -7.7590     0.6730    -1.1120 h1         1 3X4       0.044700
     43 H19         -5.5430     1.7030    -0.6880 hc         1 3X4       0.043200
     44 H20         -5.7520     1.4570     1.0390 hc         1 3X4       0.043200
     45 H21         -5.6860    -0.7530    -1.0750 hc         1 3X4       0.032200
     46 H22         -5.8650    -1.0290     0.6460 hc         1 3X4       0.032200
     47 H10         -3.6390     0.0190     1.0580 hc         1 3X4       0.039700
     48 H11         -3.4410     0.2740    -0.6690 hc         1 3X4       0.039700
     49 H12         -3.8290    -2.4500     0.6630 h1         1 3X4       0.050700
     50 H13         -3.6140    -2.1850    -1.0600 h1         1 3X4       0.050700
     51 H23         -1.4740    -0.9890     0.4680 hn         1 3X4       0.320500
     52 O1           4.5480    -0.3320    -2.2400 o          1 3X4      -0.482000
     53 H16         -7.8410    -0.5100     1.0960 hn         1 3X4       0.377500
     54 O2           3.1320     2.0480     1.3670 o          1 3X4      -0.482000
     55 H17         -8.3060     0.9180     1.7220 hn         1 3X4       0.377500
@<TRIPOS>BOND
     1     1     2 1   
     2     1    11 2   
     3     1    13 1   
     4     2    12 1   
     5     2    29 1   
     6     2    30 1   
     7     3     4 1   
     8     3    12 1   
     9     3    54 2   
    10     4     5 ar  
    11     4     9 ar  
    12     5     6 ar  
    13     5    31 1   
    14     6     7 ar  
    15     6    32 1   
    16     7     8 ar  
    17     7    33 1   
    18     8     9 ar  
    19     8    34 1   
    20     9    10 1   
    21    10    12 1   
    22    10    52 2   
    23    13    14 1   
    24    13    35 1   
    25    14    15 1   
    26    14    17 1   
    27    14    18 1   
    28    15    16 2   
    29    15    27 1   
    30    17    36 1   
    31    17    37 1   
    32    17    38 1   
    33    18    39 1   
    34    18    40 1   
    35    18    41 1   
    36    19    20 1   
    37    19    53 1   
    38    19    55 1   
    39    20    21 1   
    40    20    23 1   
    41    20    42 1   
    42    21    22 1   
    43    21    28 1   
    44    23    24 1   
    45    23    43 1   
    46    23    44 1   
    47    24    25 1   
    48    24    45 1   
    49    24    46 1   
    50    25    26 1   
    51    25    47 1   
    52    25    48 1   
    53    26    27 1   
    54    26    49 1   
    55    26    50 1   
    56    27    51 1   
@<TRIPOS>SUBSTRUCTURE
     1 3X4         1 TEMP              0 ****  ****    0 ROOT
