@<TRIPOS>MOLECULE
3X5
   69    73     1     0     0
SMALL
bcc


@<TRIPOS>ATOM
      1 O1           2.9290     0.1410    -3.6660 o          1 3X5      -0.518100
      2 C24          3.7010    -0.6200    -3.1410 c          1 3X5       0.538900
      3 C23          3.6150    -1.0510    -1.6940 c3         1 3X5       0.056500
      4 C25          3.3690    -2.5700    -1.6510 c3         1 3X5       0.018900
      5 C26          3.5600    -3.1550    -0.2960 cc         1 3X5      -0.236900
      6 N3           2.9370    -2.7010     0.8330 na         1 3X5      -0.272900
      7 C28          3.3330    -3.4740     1.8620 cc         1 3X5       0.395400
      8 N2           4.1680    -4.4050     1.4740 nd         1 3X5      -0.688000
      9 C27          4.3160    -4.2140     0.1290 cd         1 3X5       0.292200
     10 N1           2.6200    -0.3580    -0.9150 n7         1 3X5      -0.823200
     11 C22          2.9500     1.0010    -0.5210 c3         1 3X5       0.151800
     12 C21          2.2140     1.3810     0.7660 c6         1 3X5       0.106700
     13 C20          2.4970     2.8180     1.1970 c6         1 3X5      -0.083400
     14 C19          1.7680     3.8550     0.3540 c6         1 3X5      -0.059700
     15 C18          2.0360     5.2790     0.8270 c6         1 3X5      -0.069400
     16 C17          1.2600     6.2940    -0.0060 c6         1 3X5      -0.074400
     17 C16         -0.2340     5.9850     0.0000 c6         1 3X5      -0.073400
     18 C15         -0.5120     4.5580    -0.4620 c6         1 3X5      -0.069400
     19 C14          0.2740     3.5440     0.3640 c6         1 3X5      -0.078700
     20 C13          0.0270     2.1280    -0.1420 c6         1 3X5       0.104000
     21 N            0.7760     1.1420     0.6270 n          1 3X5      -0.466800
     22 C            0.2270     0.0570     1.2070 c          1 3X5       0.692700
     23 O            0.8290    -0.6640     2.0000 o          1 3X5      -0.621100
     24 C1          -1.1760    -0.3170     0.8440 ca         1 3X5      -0.145600
     25 C12         -1.5380    -0.5720    -0.4750 ca         1 3X5      -0.094500
     26 C11         -2.8040    -1.0460    -0.7770 ca         1 3X5      -0.125500
     27 C4          -3.7460    -1.2640     0.2280 cp         1 3X5      -0.013000
     28 C3          -3.3730    -1.0060     1.5480 ca         1 3X5      -0.125500
     29 C2          -2.1000    -0.5560     1.8550 ca         1 3X5      -0.094500
     30 C5          -5.0980    -1.7600    -0.0980 cp         1 3X5      -0.043000
     31 C10         -5.7600    -1.3240    -1.2470 ca         1 3X5      -0.114000
     32 C9          -7.0280    -1.7920    -1.5560 ca         1 3X5      -0.128500
     33 C8          -7.6580    -2.7070    -0.7220 ca         1 3X5      -0.121000
     34 C7          -7.0090    -3.1480     0.4240 ca         1 3X5      -0.128500
     35 C6          -5.7420    -2.6780     0.7340 ca         1 3X5      -0.114000
     36 H1           4.5350    -1.0730    -3.7080 h4         1 3X5      -0.005800
     37 H2           4.6050    -0.8640    -1.2600 h1         1 3X5       0.085700
     38 H3           2.3570    -2.7670    -2.0200 hc         1 3X5       0.056200
     39 H4           4.0490    -3.0790    -2.3370 hc         1 3X5       0.056200
     40 H5           2.3380    -1.8860     0.8820 hn         1 3X5       0.335700
     41 H6           2.9860    -3.3130     2.8710 h5         1 3X5       0.058100
     42 H8           4.9570    -4.8420    -0.4720 h4         1 3X5       0.028100
     43 H9           1.7390    -0.3690    -1.4140 hn         1 3X5       0.371800
     44 H11          4.0190     1.0490    -0.3020 h1         1 3X5       0.042200
     45 H12          2.7690     1.7300    -1.3190 h1         1 3X5       0.042200
     46 H13          2.5740     0.7140     1.5460 h1         1 3X5       0.089700
     47 H14          2.1950     2.9360     2.2430 hc         1 3X5       0.053200
     48 H15          3.5780     2.9850     1.1650 hc         1 3X5       0.053200
     49 H16          2.1140     3.7810    -0.6860 hc         1 3X5       0.049700
     50 H17          1.7430     5.3700     1.8800 hc         1 3X5       0.041200
     51 H18          3.1090     5.4880     0.7840 hc         1 3X5       0.041200
     52 H19          1.4380     7.3050     0.3680 hc         1 3X5       0.041200
     53 H20          1.6290     6.2750    -1.0370 hc         1 3X5       0.041200
     54 H21         -0.6270     6.1210     1.0140 hc         1 3X5       0.041200
     55 H22         -0.7700     6.6940    -0.6350 hc         1 3X5       0.041200
     56 H23         -1.5830     4.3430    -0.4010 hc         1 3X5       0.041200
     57 H24         -0.2330     4.4570    -1.5170 hc         1 3X5       0.041200
     58 H25         -0.0770     3.5960     1.4040 hc         1 3X5       0.058700
     59 H26         -1.0350     1.9060    -0.0830 h1         1 3X5       0.052200
     60 H27          0.3060     2.0690    -1.2020 h1         1 3X5       0.052200
     61 H28         -0.8300    -0.4170    -1.2790 ha         1 3X5       0.139500
     62 H29         -3.0490    -1.2650    -1.8080 ha         1 3X5       0.137500
     63 H30         -4.0880    -1.1480     2.3490 ha         1 3X5       0.137500
     64 H31         -1.8330    -0.3740     2.8880 ha         1 3X5       0.139500
     65 H32         -5.2910    -0.5950    -1.8960 ha         1 3X5       0.132500
     66 H33         -7.5290    -1.4350    -2.4470 ha         1 3X5       0.132500
     67 H34         -8.6460    -3.0740    -0.9630 ha         1 3X5       0.132000
     68 H35         -7.4890    -3.8650     1.0770 ha         1 3X5       0.132500
     69 H36         -5.2400    -3.0440     1.6210 ha         1 3X5       0.132500
@<TRIPOS>BOND
     1     1     2 2   
     2     2     3 1   
     3     2    36 1   
     4     3     4 1   
     5     3    10 1   
     6     3    37 1   
     7     4     5 1   
     8     4    38 1   
     9     4    39 1   
    10     5     6 1   
    11     5     9 2   
    12     6     7 1   
    13     6    40 1   
    14     7     8 2   
    15     7    41 1   
    16     8     9 1   
    17     9    42 1   
    18    10    11 1   
    19    10    43 1   
    20    11    12 1   
    21    11    44 1   
    22    11    45 1   
    23    12    13 1   
    24    12    21 1   
    25    12    46 1   
    26    13    14 1   
    27    13    47 1   
    28    13    48 1   
    29    14    15 1   
    30    14    19 1   
    31    14    49 1   
    32    15    16 1   
    33    15    50 1   
    34    15    51 1   
    35    16    17 1   
    36    16    52 1   
    37    16    53 1   
    38    17    18 1   
    39    17    54 1   
    40    17    55 1   
    41    18    19 1   
    42    18    56 1   
    43    18    57 1   
    44    19    20 1   
    45    19    58 1   
    46    20    21 1   
    47    20    59 1   
    48    20    60 1   
    49    21    22 1   
    50    22    23 2   
    51    22    24 1   
    52    24    25 ar  
    53    24    29 ar  
    54    25    26 ar  
    55    25    61 1   
    56    26    27 ar  
    57    26    62 1   
    58    27    28 ar  
    59    27    30 1   
    60    28    29 ar  
    61    28    63 1   
    62    29    64 1   
    63    30    31 ar  
    64    30    35 ar  
    65    31    32 ar  
    66    31    65 1   
    67    32    33 ar  
    68    32    66 1   
    69    33    34 ar  
    70    33    67 1   
    71    34    35 ar  
    72    34    68 1   
    73    35    69 1   
@<TRIPOS>SUBSTRUCTURE
     1 3X5         1 TEMP              0 ****  ****    0 ROOT
