@<TRIPOS>MOLECULE
3X5
   69    73     1     0     0
SMALL
No Charge or Current Charge


@<TRIPOS>ATOM
      1 O1           1.8300     0.0310    -3.1220 o          1 3X5      -0.518100
      2 C24          2.9290    -0.5050    -3.0010 c          1 3X5       0.538900
      3 C23          3.4870    -1.0770    -1.6580 c3         1 3X5       0.056500
      4 C25          3.4870    -2.6310    -1.7110 c3         1 3X5       0.018900
      5 C26          4.2470    -3.2950    -0.5850 cc         1 3X5      -0.222300
      6 N3           4.2610    -2.8510     0.7170 na         1 3X5      -0.272500
      7 C28          5.0520    -3.6950     1.4520 cc         1 3X5       0.395400
      8 N2           5.5410    -4.6550     0.6780 nd         1 3X5      -0.688000
      9 C27          5.0460    -4.4110    -0.5900 cd         1 3X5       0.226900
     10 N1           2.7680    -0.5820    -0.4270 n7         1 3X5      -0.878400
     11 C22          2.9830     0.8410    -0.0810 c3         1 3X5       0.151800
     12 C21          2.0580     1.3030     1.0900 c6         1 3X5       0.106700
     13 C20          2.3260     2.7760     1.5080 c6         1 3X5      -0.083400
     14 C19          1.7950     3.7850     0.4560 c6         1 3X5      -0.059700
     15 C18          2.0140     5.2540     0.9060 c6         1 3X5      -0.069400
     16 C17          1.4580     6.2470    -0.1450 c6         1 3X5      -0.074400
     17 C16         -0.0370     5.9710    -0.4440 c6         1 3X5      -0.073400
     18 C15         -0.2640     4.5000    -0.8740 c6         1 3X5      -0.069400
     19 C14          0.2870     3.5140     0.1910 c6         1 3X5      -0.078700
     20 C13          0.0580     2.0390    -0.2260 c6         1 3X5       0.104000
     21 N            0.6080     1.0840     0.7830 n          1 3X5      -0.399800
     22 C           -0.2380     0.4150     1.6990 c          1 3X5       0.625700
     23 O            0.1340     0.1800     2.8440 o          1 3X5      -0.621100
     24 C1          -1.5750    -0.1060     1.2090 ca         1 3X5      -0.145600
     25 C12         -1.7700    -0.5170    -0.1290 ca         1 3X5      -0.076500
     26 C11         -3.0140    -1.0180    -0.5490 ca         1 3X5      -0.107500
     27 C4          -4.1000    -1.1400     0.3510 cp         1 3X5      -0.013000
     28 C3          -3.8850    -0.7490     1.6950 ca         1 3X5      -0.107500
     29 C2          -2.6430    -0.2480     2.1190 ca         1 3X5      -0.076500
     30 C5          -5.4260    -1.6730    -0.1010 cp         1 3X5      -0.043000
     31 C10         -5.9190    -1.4020    -1.4030 ca         1 3X5      -0.096000
     32 C9          -7.1630    -1.9020    -1.8280 ca         1 3X5      -0.110500
     33 C8          -7.9400    -2.6850    -0.9600 ca         1 3X5      -0.103000
     34 C7          -7.4720    -2.9670     0.3340 ca         1 3X5      -0.110500
     35 C6          -6.2290    -2.4670     0.7580 ca         1 3X5      -0.096000
     36 H1           3.6090    -0.6120    -3.8750 h4         1 3X5      -0.005800
     37 H2           4.5400    -0.7640    -1.6230 h1         1 3X5       0.085700
     38 H3           2.4510    -2.9920    -1.7170 hc         1 3X5       0.056200
     39 H4           3.9250    -2.9500    -2.6650 hc         1 3X5       0.056200
     40 H5           3.7830    -2.0240     1.0620 hn         1 3X5       0.386000
     41 H6           5.2290    -3.5590     2.5140 h5         1 3X5       0.058100
     42 H8           5.2900    -5.0500    -1.4300 h4         1 3X5       0.028100
     43 H9           1.7580    -0.7060    -0.5800 hn         1 3X5       0.427000
     44 H11          4.0290     1.0040     0.2130 h1         1 3X5       0.042200
     45 H12          2.7870     1.4760    -0.9540 h1         1 3X5       0.042200
     46 H13          2.3420     0.6720     1.9440 h1         1 3X5       0.089700
     47 H14          1.8390     2.9640     2.4750 hc         1 3X5       0.053200
     48 H15          3.4010     2.9290     1.6720 hc         1 3X5       0.053200
     49 H16          2.3490     3.6380    -0.4820 hc         1 3X5       0.049700
     50 H17          1.5240     5.4290     1.8740 hc         1 3X5       0.041200
     51 H18          3.0860     5.4440     1.0600 hc         1 3X5       0.041200
     52 H19          1.5820     7.2780     0.2130 hc         1 3X5       0.041200
     53 H20          2.0410     6.1670    -1.0730 hc         1 3X5       0.041200
     54 H21         -0.6380     6.1920     0.4490 hc         1 3X5       0.041200
     55 H22         -0.3910     6.6490    -1.2330 hc         1 3X5       0.041200
     56 H23         -1.3380     4.3250    -1.0290 hc         1 3X5       0.041200
     57 H24          0.2240     4.3190    -1.8420 hc         1 3X5       0.041200
     58 H25         -0.2660     3.6820     1.1260 hc         1 3X5       0.058700
     59 H26         -1.0210     1.8920    -0.3570 h1         1 3X5       0.052200
     60 H27          0.5300     1.8480    -1.2010 h1         1 3X5       0.052200
     61 H28         -0.9540    -0.4680    -0.8470 ha         1 3X5       0.121500
     62 H29         -3.1290    -1.3330    -1.5830 ha         1 3X5       0.119500
     63 H30         -4.6940    -0.8220     2.4180 ha         1 3X5       0.119500
     64 H31         -2.5150     0.0440     3.1600 ha         1 3X5       0.121500
     65 H32         -5.3400    -0.7870    -2.0860 ha         1 3X5       0.114500
     66 H33         -7.5240    -1.6790    -2.8290 ha         1 3X5       0.114500
     67 H34         -8.9020    -3.0720    -1.2880 ha         1 3X5       0.114000
     68 H35         -8.0710    -3.5770     1.0070 ha         1 3X5       0.114500
     69 H36         -5.8810    -2.7090     1.7590 ha         1 3X5       0.114500
@<TRIPOS>BOND
     1     1     2 2   
     2     2     3 1   
     3     2    36 1   
     4     3     4 1   
     5     3    10 1   
     6     3    37 1   
     7     4     5 1   
     8     4    38 1   
     9     4    39 1   
    10     5     6 1   
    11     5     9 2   
    12     6     7 1   
    13     6    40 1   
    14     7     8 2   
    15     7    41 1   
    16     8     9 1   
    17     9    42 1   
    18    10    11 1   
    19    10    43 1   
    20    11    12 1   
    21    11    44 1   
    22    11    45 1   
    23    12    13 1   
    24    12    21 1   
    25    12    46 1   
    26    13    14 1   
    27    13    47 1   
    28    13    48 1   
    29    14    15 1   
    30    14    19 1   
    31    14    49 1   
    32    15    16 1   
    33    15    50 1   
    34    15    51 1   
    35    16    17 1   
    36    16    52 1   
    37    16    53 1   
    38    17    18 1   
    39    17    54 1   
    40    17    55 1   
    41    18    19 1   
    42    18    56 1   
    43    18    57 1   
    44    19    20 1   
    45    19    58 1   
    46    20    21 1   
    47    20    59 1   
    48    20    60 1   
    49    21    22 1   
    50    22    23 2   
    51    22    24 1   
    52    24    25 ar  
    53    24    29 ar  
    54    25    26 ar  
    55    25    61 1   
    56    26    27 ar  
    57    26    62 1   
    58    27    28 ar  
    59    27    30 1   
    60    28    29 ar  
    61    28    63 1   
    62    29    64 1   
    63    30    31 ar  
    64    30    35 ar  
    65    31    32 ar  
    66    31    65 1   
    67    32    33 ar  
    68    32    66 1   
    69    33    34 ar  
    70    33    67 1   
    71    34    35 ar  
    72    34    68 1   
    73    35    69 1   
@<TRIPOS>SUBSTRUCTURE
     1 3X5         1 TEMP              0 ****  ****    0 ROOT
