@<TRIPOS>MOLECULE
3X6
   45    47     1     0     0
SMALL
abcg2


@<TRIPOS>ATOM
      1 C10          3.9460     0.5100    -1.2620 c          1 3X6       0.617000
      2 C12          3.5520     2.7610    -0.3020 c          1 3X6       0.591200
      3 C13          2.1430     2.5280    -0.4920 cc         1 3X6      -0.381200
      4 C14          1.7320     1.3650    -1.0260 cd         1 3X6       0.014600
      5 C00          1.0930    -3.6690     1.2030 ca         1 3X6      -0.188000
      6 C01          0.6010    -4.4410     2.2500 ca         1 3X6      -0.068000
      7 C02         -0.1640    -3.8710     3.2530 ca         1 3X6      -0.134000
      8 C03         -0.4380    -2.5090     3.2130 ca         1 3X6      -0.073000
      9 C04          0.0540    -1.7360     2.1800 ca         1 3X6       0.054100
     10 C05          0.8230    -2.3060     1.1550 ca         1 3X6       0.126100
     11 C0C         -0.9070     0.2230     1.2630 ca         1 3X6       0.158100
     12 C0D         -0.8540     1.6110     1.2440 ca         1 3X6      -0.129000
     13 C0E         -1.6070     2.2910     0.3010 ca         1 3X6       0.136000
     14 C0F         -2.4040     1.6350    -0.6180 ca         1 3X6      -0.125000
     15 C0G         -2.4600     0.2410    -0.5780 ca         1 3X6      -0.035800
     16 C0H         -1.7150    -0.4630     0.3670 ca         1 3X6      -0.164000
     17 CL1         -1.5220     4.0190     0.2630 cl         1 3X6      -0.186000
     18 C0M         -3.2810    -0.5360    -1.5000 ce         1 3X6      -0.107200
     19 C0V         -4.0030    -0.0460    -2.5170 cf         1 3X6      -0.103700
     20 C0X         -4.7710    -0.9020    -3.3490 ch         1 3X6       0.269700
     21 N0Z         -5.4010    -1.5800    -4.0370 n1         1 3X6      -0.445000
     22 O0B          1.2310    -1.4670     0.1900 os         1 3X6      -0.344100
     23 C0O          1.9880    -1.9710    -0.8940 c3         1 3X6       0.138600
     24 N0S          2.5830     0.3750    -1.4150 n          1 3X6      -0.305000
     25 N11          4.3470     1.7030    -0.7210 ns         1 3X6      -0.467500
     26 O15          4.7300    -0.3580    -1.5830 o          1 3X6      -0.564000
     27 O17          4.0560     3.7630     0.1700 o          1 3X6      -0.524000
     28 H1           1.4310     3.2880    -0.2110 ha         1 3X6       0.227000
     29 H2           0.6830     1.1620    -1.1890 h4         1 3X6       0.209000
     30 H3           1.6900    -4.1430     0.4360 ha         1 3X6       0.123000
     31 H4           0.8270    -5.4990     2.2710 ha         1 3X6       0.120000
     32 H5          -0.5470    -4.4750     4.0650 ha         1 3X6       0.125000
     33 H6          -1.0250    -2.0380     3.9900 ha         1 3X6       0.134000
     34 H7          -0.2300     2.1430     1.9500 ha         1 3X6       0.153000
     35 H8          -2.9710     2.2040    -1.3410 ha         1 3X6       0.134000
     36 H9          -1.7800    -1.5430     0.3920 ha         1 3X6       0.132000
     37 H10         -3.2900    -1.6070    -1.3280 ha         1 3X6       0.186000
     38 H11         -4.0450     1.0080    -2.7640 ha         1 3X6       0.205000
     39 H12          2.9850    -2.2720    -0.5600 h1         1 3X6       0.058200
     40 H13          1.5070    -2.8410    -1.3520 h1         1 3X6       0.058200
     41 H14          2.6700    -1.2160    -2.7720 h1         1 3X6       0.076200
     42 H15          1.0630    -0.6760    -2.3330 h1         1 3X6       0.076200
     43 H16          5.3480     1.8130    -0.6110 hn         1 3X6       0.342500
     44 C0P          2.0580    -0.8780    -1.9380 c3         1 3X6       0.108000
     45 O0A         -0.1490    -0.3790     2.2100 os         1 3X6      -0.230200
@<TRIPOS>BOND
     1     1    24 1   
     2     1    25 1   
     3     1    26 2   
     4     2     3 1   
     5     2    25 1   
     6     2    27 2   
     7     3     4 2   
     8     3    28 1   
     9     4    24 1   
    10     4    29 1   
    11     5     6 ar  
    12     5    10 ar  
    13     5    30 1   
    14     6     7 ar  
    15     6    31 1   
    16     7     8 ar  
    17     7    32 1   
    18     8     9 ar  
    19     8    33 1   
    20     9    10 ar  
    21     9    45 1   
    22    10    22 1   
    23    11    12 ar  
    24    11    16 ar  
    25    11    45 1   
    26    12    13 ar  
    27    12    34 1   
    28    13    14 ar  
    29    13    17 1   
    30    14    15 ar  
    31    14    35 1   
    32    15    16 ar  
    33    15    18 1   
    34    16    36 1   
    35    18    19 2   
    36    18    37 1   
    37    19    20 1   
    38    19    38 1   
    39    20    21 3   
    40    22    23 1   
    41    23    39 1   
    42    23    40 1   
    43    23    44 1   
    44    24    44 1   
    45    25    43 1   
    46    41    44 1   
    47    42    44 1   
@<TRIPOS>SUBSTRUCTURE
     1 3X6         1 TEMP              0 ****  ****    0 ROOT
