@<TRIPOS>MOLECULE
3X6
   45    47     1     0     0
SMALL
No Charge or Current Charge


@<TRIPOS>ATOM
      1 C10          3.9950     0.6140    -1.3990 c          1 3X6       0.617000
      2 C12          3.6640     2.8160    -0.3900 c          1 3X6       0.591200
      3 C13          2.2300     2.5450    -0.4210 cc         1 3X6      -0.381200
      4 C14          1.7250     1.3650    -0.9150 cd         1 3X6       0.014600
      5 C00          1.0370    -3.7240     1.2510 ca         1 3X6      -0.188000
      6 C01          0.6400    -4.5260     2.3360 ca         1 3X6      -0.068000
      7 C02         -0.0780    -3.9630     3.4030 ca         1 3X6      -0.134000
      8 C03         -0.4030    -2.5970     3.3880 ca         1 3X6      -0.073000
      9 C04         -0.0230    -1.7900     2.3020 ca         1 3X6       0.054100
     10 C05          0.7120    -2.3470     1.2230 ca         1 3X6       0.126100
     11 C0C         -1.0200     0.2210     1.3560 ca         1 3X6       0.158100
     12 C0D         -0.9300     1.6190     1.3150 ca         1 3X6      -0.129000
     13 C0E         -1.6080     2.3340     0.3180 ca         1 3X6       0.136000
     14 C0F         -2.3790     1.6570    -0.6400 ca         1 3X6      -0.125000
     15 C0G         -2.4900     0.2510    -0.6030 ca         1 3X6      -0.035800
     16 C0H         -1.8120    -0.4590     0.4080 ca         1 3X6      -0.164000
     17 Cl1         -1.4780     4.0860     0.2590 cl         1 3X6      -0.186000
     18 C0M         -3.3060    -0.5000    -1.6020 ce         1 3X6      -0.107200
     19 C0V         -4.0110    -0.0290    -2.6710 cf         1 3X6      -0.103700
     20 C0X         -4.7550    -0.8600    -3.5600 ch         1 3X6       0.269700
     21 N0Z         -5.3530    -1.5730    -4.2650 n1         1 3X6      -0.445000
     22 O0B          1.0930    -1.5330     0.1700 os         1 3X6      -0.344100
     23 C0O          1.9120    -2.0050    -0.9170 c3         1 3X6       0.138600
     24 N0S          2.6000     0.3970    -1.3980 n          1 3X6      -0.305000
     25 N11          4.4170     1.8050    -0.8930 ns         1 3X6      -0.467500
     26 O15          4.8000    -0.2020    -1.8170 o          1 3X6      -0.564000
     27 O17          4.1570     3.8440     0.0380 o          1 3X6      -0.524000
     28 H1           1.5930     3.3310    -0.0320 ha         1 3X6       0.227000
     29 H2           0.6720     1.0990    -0.9690 h4         1 3X6       0.209000
     30 H3           1.5960    -4.1900     0.4460 ha         1 3X6       0.123000
     31 H4           0.8930    -5.5840     2.3500 ha         1 3X6       0.120000
     32 H5          -0.3790    -4.5850     4.2440 ha         1 3X6       0.125000
     33 H6          -0.9530    -2.1610     4.2180 ha         1 3X6       0.134000
     34 H7          -0.3300     2.1460     2.0510 ha         1 3X6       0.153000
     35 H8          -2.8890     2.2380    -1.4020 ha         1 3X6       0.134000
     36 H9          -1.8990    -1.5410     0.4520 ha         1 3X6       0.132000
     37 H10         -3.3230    -1.5790    -1.4320 ha         1 3X6       0.186000
     38 H11         -4.0300     1.0360    -2.8940 ha         1 3X6       0.205000
     39 H12          2.9040    -2.3010    -0.5520 h1         1 3X6       0.058200
     40 H13          1.4490    -2.8690    -1.4100 h1         1 3X6       0.058200
     41 H14          2.7150    -1.2220    -2.7690 h1         1 3X6       0.076200
     42 H15          1.0840    -0.6770    -2.4040 h1         1 3X6       0.076200
     43 H16          5.4130     1.9540    -0.8920 hn         1 3X6       0.342500
     44 C0P          2.0660    -0.8720    -1.9560 c3         1 3X6       0.108000
     45 O0A         -0.3410    -0.4470     2.3520 os         1 3X6      -0.230200
@<TRIPOS>BOND
     1     1    24 1   
     2     1    25 1   
     3     1    26 2   
     4     2     3 1   
     5     2    25 1   
     6     2    27 2   
     7     3     4 2   
     8     3    28 1   
     9     4    24 1   
    10     4    29 1   
    11     5     6 ar  
    12     5    10 ar  
    13     5    30 1   
    14     6     7 ar  
    15     6    31 1   
    16     7     8 ar  
    17     7    32 1   
    18     8     9 ar  
    19     8    33 1   
    20     9    10 ar  
    21     9    45 1   
    22    10    22 1   
    23    11    12 ar  
    24    11    16 ar  
    25    11    45 1   
    26    12    13 ar  
    27    12    34 1   
    28    13    14 ar  
    29    13    17 1   
    30    14    15 ar  
    31    14    35 1   
    32    15    16 ar  
    33    15    18 1   
    34    16    36 1   
    35    18    19 2   
    36    18    37 1   
    37    19    20 1   
    38    19    38 1   
    39    20    21 3   
    40    22    23 1   
    41    23    39 1   
    42    23    40 1   
    43    23    44 1   
    44    24    44 1   
    45    25    43 1   
    46    41    44 1   
    47    42    44 1   
@<TRIPOS>SUBSTRUCTURE
     1 3X6         1 TEMP              0 ****  ****    0 ROOT
