@<TRIPOS>MOLECULE
3X7
   49    53     1     0     0
SMALL
bcc


@<TRIPOS>ATOM
      1 N5          -6.9100    -3.9630     0.0310 n1         1 3X7      -0.351800
      2 C18         -6.4870    -2.8940    -0.0370 cg         1 3X7       0.138800
      3 C6          -5.9560    -1.5650    -0.1220 ca         1 3X7       0.450300
      4 N2          -6.8520    -0.6000    -0.3760 nb         1 3X7      -0.614000
      5 C7          -6.4390     0.6450    -0.4700 ca         1 3X7       0.390200
      6 C3          -5.0910     0.9640    -0.3080 ca         1 3X7      -0.110500
      7 C5          -4.5960    -1.3590     0.0550 ca         1 3X7      -0.138300
      8 C2          -4.1490    -0.0510    -0.0410 cp         1 3X7      -0.060000
      9 C1          -2.8760     0.6000     0.0670 cp         1 3X7      -0.198300
     10 C10         -1.5730     0.2020     0.3210 ca         1 3X7      -0.021000
     11 C9          -0.5850     1.1790     0.3510 cp         1 3X7      -0.176300
     12 C8          -0.9670     2.5120     0.1120 ca         1 3X7       0.451200
     13 N3          -2.2030     2.9210    -0.1270 nb         1 3X7      -0.686000
     14 C4          -3.1190     1.9720    -0.1410 ca         1 3X7       0.480800
     15 N1          -4.4540     2.1660    -0.3650 na         1 3X7      -0.265000
     16 C14          0.8280     0.8470     0.6100 cp         1 3X7      -0.034000
     17 C13          1.3890    -0.3330     0.1160 ca         1 3X7      -0.121500
     18 C12          2.7180    -0.6450     0.3520 ca         1 3X7      -0.116000
     19 C15          1.6450     1.7010     1.3480 ca         1 3X7      -0.121500
     20 C16          2.9790     1.3910     1.5720 ca         1 3X7      -0.116000
     21 C11          3.5350     0.2150     1.0820 ca         1 3X7      -0.077300
     22 C17          4.9730    -0.1300     1.3650 c3         1 3X7       0.211100
     23 N4           5.6560    -0.7000     0.2230 n3         1 3X7      -0.717600
     24 C23          5.7950     0.2640    -0.8570 c6         1 3X7       0.165300
     25 C22          6.4390    -0.3650    -2.0810 c6         1 3X7      -0.074900
     26 C21          7.7920    -0.9690    -1.7310 c6         1 3X7      -0.075400
     27 C20          7.6410    -1.9280    -0.5560 c6         1 3X7      -0.074900
     28 C19          6.9460    -1.2470     0.6130 c6         1 3X7       0.165300
     29 H1          -7.1810     1.4070    -0.6760 h4         1 3X7       0.032100
     30 H2          -3.9290    -2.1860     0.2560 ha         1 3X7       0.157000
     31 H3          -1.3360    -0.8380     0.5100 ha         1 3X7       0.148000
     32 H4          -0.2070     3.2860     0.1010 h4         1 3X7       0.027100
     33 H5          -4.8880     3.0590    -0.5420 hn         1 3X7       0.322700
     34 H6           0.7880    -1.0090    -0.4800 ha         1 3X7       0.131000
     35 H7           3.1350    -1.5580    -0.0550 ha         1 3X7       0.140000
     36 H8           1.2420     2.6150     1.7670 ha         1 3X7       0.131000
     37 H9           3.5930     2.0780     2.1420 ha         1 3X7       0.140000
     38 H10          5.4900     0.7650     1.7520 h1         1 3X7       0.039200
     39 H11          5.0000    -0.8680     2.1740 h1         1 3X7       0.039200
     40 H13          4.8070     0.6460    -1.1200 h1         1 3X7       0.031200
     41 H14          6.3930     1.1360    -0.5340 h1         1 3X7       0.031200
     42 H15          5.7770    -1.1430    -2.4740 hc         1 3X7       0.046200
     43 H16          6.5420     0.3920    -2.8620 hc         1 3X7       0.046200
     44 H17          8.2250    -1.4810    -2.5930 hc         1 3X7       0.039200
     45 H18          8.4880    -0.1680    -1.4600 hc         1 3X7       0.039200
     46 H19          7.0560    -2.7990    -0.8640 hc         1 3X7       0.046200
     47 H20          8.6140    -2.2980    -0.2280 hc         1 3X7       0.046200
     48 H21          7.6070    -0.4600     1.0190 h1         1 3X7       0.031200
     49 H22          6.7870    -1.9670     1.4190 h1         1 3X7       0.031200
@<TRIPOS>BOND
     1     1     2 3   
     2     2     3 1   
     3     3     4 ar  
     4     3     7 ar  
     5     4     5 ar  
     6     5     6 ar  
     7     5    29 1   
     8     6     8 ar  
     9     6    15 1   
    10     7     8 ar  
    11     7    30 1   
    12     8     9 1   
    13     9    10 ar  
    14     9    14 ar  
    15    10    11 ar  
    16    10    31 1   
    17    11    12 ar  
    18    11    16 1   
    19    12    13 ar  
    20    12    32 1   
    21    13    14 ar  
    22    14    15 1   
    23    15    33 1   
    24    16    17 ar  
    25    16    19 ar  
    26    17    18 ar  
    27    17    34 1   
    28    18    21 ar  
    29    18    35 1   
    30    19    20 ar  
    31    19    36 1   
    32    20    21 ar  
    33    20    37 1   
    34    21    22 1   
    35    22    23 1   
    36    22    38 1   
    37    22    39 1   
    38    23    24 1   
    39    23    28 1   
    40    24    25 1   
    41    24    40 1   
    42    24    41 1   
    43    25    26 1   
    44    25    42 1   
    45    25    43 1   
    46    26    27 1   
    47    26    44 1   
    48    26    45 1   
    49    27    28 1   
    50    27    46 1   
    51    27    47 1   
    52    28    48 1   
    53    28    49 1   
@<TRIPOS>SUBSTRUCTURE
     1 3X7         1 TEMP              0 ****  ****    0 ROOT
