@<TRIPOS>MOLECULE
3X7
   49    53     1     0     0
SMALL
No Charge or Current Charge


@<TRIPOS>ATOM
      1 N5          -6.9120    -3.9500     0.6470 n1         1 3X7      -0.441000
      2 C18         -6.5390    -2.8640     0.4190 cg         1 3X7       0.228000
      3 C6          -6.0640    -1.5290     0.1390 ca         1 3X7       0.385000
      4 N2          -7.0000    -0.5970    -0.2330 nb         1 3X7      -0.614000
      5 C7          -6.5840     0.6700    -0.5020 ca         1 3X7       0.324900
      6 C3          -5.2250     1.0070    -0.3990 ca         1 3X7      -0.045200
      7 C5          -4.6810    -1.2370     0.2570 ca         1 3X7      -0.055000
      8 C2          -4.2700     0.0790    -0.0250 cp         1 3X7      -0.060000
      9 C1          -2.9760     0.7430    -0.0160 cp         1 3X7      -0.133000
     10 C10         -1.6920     0.2630     0.2910 ca         1 3X7      -0.003000
     11 C9          -0.6050     1.1710     0.2130 cp         1 3X7      -0.111000
     12 C8          -0.9050     2.5140    -0.1750 ca         1 3X7       0.385900
     13 N3          -2.1500     2.9750    -0.4720 nb         1 3X7      -0.686000
     14 C4          -3.1480     2.0820    -0.3850 ca         1 3X7       0.415500
     15 N1          -4.5220     2.2080    -0.6110 na         1 3X7      -0.315300
     16 C14          0.7960     0.7420     0.5220 cp         1 3X7      -0.034000
     17 C13          1.2390    -0.5750     0.2430 ca         1 3X7      -0.103500
     18 C12          2.5540    -0.9770     0.5320 ca         1 3X7      -0.098000
     19 C15          1.7270     1.6400     1.1030 ca         1 3X7      -0.103500
     20 C16          3.0430     1.2380     1.3930 ca         1 3X7      -0.098000
     21 C11          3.4650    -0.0740     1.1090 ca         1 3X7      -0.077300
     22 C17          4.8930    -0.5150     1.4200 c3         1 3X7       0.211100
     23 N4           5.7010    -0.8050     0.2100 n3         1 3X7      -0.717600
     24 C23          5.8620     0.3830    -0.6780 c6         1 3X7       0.165300
     25 C22          6.6180     0.0250    -1.9820 c6         1 3X7      -0.074900
     26 C21          7.9880    -0.6200    -1.6720 c6         1 3X7      -0.075400
     27 C20          7.8050    -1.8230    -0.7190 c6         1 3X7      -0.074900
     28 C19          7.0180    -1.4110     0.5500 c6         1 3X7       0.165300
     29 H1          -7.3380     1.3990    -0.7960 h4         1 3X7       0.032100
     30 H2          -3.9680    -2.0000     0.5550 ha         1 3X7       0.139000
     31 H3          -1.5490    -0.7720     0.5920 ha         1 3X7       0.130000
     32 H4          -0.1060     3.2490    -0.2630 h4         1 3X7       0.027100
     33 H5          -4.9470     3.0800    -0.8970 hn         1 3X7       0.373000
     34 H6           0.5640    -1.2920    -0.2170 ha         1 3X7       0.113000
     35 H7           2.8720    -1.9920     0.3000 ha         1 3X7       0.122000
     36 H8           1.4270     2.6570     1.3450 ha         1 3X7       0.113000
     37 H9           3.7340     1.9500     1.8400 ha         1 3X7       0.122000
     38 H10          5.3880     0.2580     2.0240 h1         1 3X7       0.039200
     39 H11          4.8340    -1.4150     2.0470 h1         1 3X7       0.039200
     40 H13          4.8810     0.7980    -0.9530 h1         1 3X7       0.031200
     41 H14          6.4120     1.1780    -0.1520 h1         1 3X7       0.031200
     42 H15          6.0080    -0.6670    -2.5790 hc         1 3X7       0.046200
     43 H16          6.7560     0.9270    -2.5920 hc         1 3X7       0.046200
     44 H17          8.4740    -0.9440    -2.6030 hc         1 3X7       0.039200
     45 H18          8.6520     0.1230    -1.2090 hc         1 3X7       0.039200
     46 H19          7.2680    -2.6300    -1.2360 hc         1 3X7       0.046200
     47 H20          8.7840    -2.2290    -0.4340 hc         1 3X7       0.046200
     48 H21          7.6240    -0.7000     1.1320 h1         1 3X7       0.031200
     49 H22          6.8750    -2.3030     1.1780 h1         1 3X7       0.031200
@<TRIPOS>BOND
     1     1     2 3   
     2     2     3 1   
     3     3     4 ar  
     4     3     7 ar  
     5     4     5 ar  
     6     5     6 ar  
     7     5    29 1   
     8     6     8 ar  
     9     6    15 1   
    10     7     8 ar  
    11     7    30 1   
    12     8     9 1   
    13     9    10 ar  
    14     9    14 ar  
    15    10    11 ar  
    16    10    31 1   
    17    11    12 ar  
    18    11    16 1   
    19    12    13 ar  
    20    12    32 1   
    21    13    14 ar  
    22    14    15 1   
    23    15    33 1   
    24    16    17 ar  
    25    16    19 ar  
    26    17    18 ar  
    27    17    34 1   
    28    18    21 ar  
    29    18    35 1   
    30    19    20 ar  
    31    19    36 1   
    32    20    21 ar  
    33    20    37 1   
    34    21    22 1   
    35    22    23 1   
    36    22    38 1   
    37    22    39 1   
    38    23    24 1   
    39    23    28 1   
    40    24    25 1   
    41    24    40 1   
    42    24    41 1   
    43    25    26 1   
    44    25    42 1   
    45    25    43 1   
    46    26    27 1   
    47    26    44 1   
    48    26    45 1   
    49    27    28 1   
    50    27    46 1   
    51    27    47 1   
    52    28    48 1   
    53    28    49 1   
@<TRIPOS>SUBSTRUCTURE
     1 3X7         1 TEMP              0 ****  ****    0 ROOT
