@<TRIPOS>MOLECULE
3X8
   44    46     1     0     0
SMALL
No Charge or Current Charge


@<TRIPOS>ATOM
      1 C4           4.1270     0.7100     0.4790 c6         1 3X8       0.146300
      2 C5           2.6970     1.2180     0.1130 c6         1 3X8       0.172300
      3 C6           2.6840     2.7430    -0.2420 c3         1 3X8       0.169600
      4 C3           4.0990    -0.8330     0.7100 c6         1 3X8       0.142300
      5 CAH         -5.3760    -0.9470     0.8050 ca         1 3X8      -0.102000
      6 CAI         -6.7570    -0.6880     0.7780 ca         1 3X8      -0.111000
      7 CAJ         -7.2560     0.3910     0.0300 ca         1 3X8      -0.109000
      8 CAK         -6.3710     1.2100    -0.6900 ca         1 3X8      -0.111000
      9 CAL         -4.9900     0.9490    -0.6630 ca         1 3X8      -0.102000
     10 CAG         -4.4630    -0.1350     0.0850 cp         1 3X8      -0.026000
     11 CAD         -2.9910    -0.4120     0.1130 cp         1 3X8      -0.065000
     12 CAC         -2.3610    -0.9110     1.2810 ca         1 3X8      -0.070000
     13 CAB         -0.9800    -1.1690     1.3060 ca         1 3X8      -0.158500
     14 CAE         -2.1790    -0.1860    -1.0270 ca         1 3X8      -0.070000
     15 CAF         -0.7970    -0.4460    -1.0040 ca         1 3X8      -0.158500
     16 CAA         -0.1900    -0.9380     0.1710 ca         1 3X8       0.140100
     17 O1           1.1590    -1.2230     0.2650 os         1 3X8      -0.386100
     18 C1           2.0700    -0.9520    -0.8220 c6         1 3X8       0.358300
     19 O5           2.1770     0.4780    -1.0270 os         1 3X8      -0.446000
     20 O6           1.3840     3.2340    -0.6310 oh         1 3X8      -0.711000
     21 O4           4.6540     1.3690     1.6490 oh         1 3X8      -0.722000
     22 O3           5.4310    -1.3220     0.9540 oh         1 3X8      -0.651000
     23 C2           3.4860    -1.5640    -0.5220 c6         1 3X8       0.122300
     24 O2           4.4010    -1.4430    -1.6440 oh         1 3X8      -0.689000
     25 H41          4.7810     0.9140    -0.3830 h1         1 3X8       0.069700
     26 H5           2.0280     1.0690     0.9730 h1         1 3X8       0.073700
     27 H62          3.0450     3.3010     0.6330 h1         1 3X8       0.036200
     28 H61          3.4070     2.9090    -1.0520 h1         1 3X8       0.036200
     29 H31          3.4630    -1.0390     1.5840 h1         1 3X8       0.061700
     30 HAI         -7.4410    -1.3250     1.3340 ha         1 3X8       0.111500
     31 HAJ         -8.3250     0.5930     0.0100 ha         1 3X8       0.112000
     32 HAK         -6.7550     2.0480    -1.2670 ha         1 3X8       0.111500
     33 HAL         -4.3220     1.6030    -1.2170 ha         1 3X8       0.113500
     34 HAC         -2.9450    -1.0860     2.1820 ha         1 3X8       0.115500
     35 HAB         -0.5180    -1.5490     2.2140 ha         1 3X8       0.130000
     36 HAE         -2.6270     0.1820    -1.9470 ha         1 3X8       0.115500
     37 HAF         -0.2210    -0.2580    -1.9050 ha         1 3X8       0.130000
     38 H1           1.6820    -1.4240    -1.7370 h2         1 3X8       0.077700
     39 H63          1.5000     4.1770    -0.8940 ho         1 3X8       0.502000
     40 H42          5.3840     0.7830     1.9670 ho         1 3X8       0.523000
     41 H32          5.7740    -1.5480     0.0580 ho         1 3X8       0.448000
     42 H21          3.3500    -2.6250    -0.2650 h1         1 3X8       0.049700
     43 H22          4.0290    -1.9670    -2.3930 ho         1 3X8       0.504000
     44 HAH         -5.0130    -1.7960     1.3790 ha         1 3X8       0.113500
@<TRIPOS>BOND
     1     1     2 1   
     2     1     4 1   
     3     1    21 1   
     4     1    25 1   
     5     2     3 1   
     6     2    19 1   
     7     2    26 1   
     8     3    20 1   
     9     3    27 1   
    10     3    28 1   
    11     4    22 1   
    12     4    23 1   
    13     4    29 1   
    14     5     6 ar  
    15     5    10 ar  
    16     5    44 1   
    17     6     7 ar  
    18     6    30 1   
    19     7     8 ar  
    20     7    31 1   
    21     8     9 ar  
    22     8    32 1   
    23     9    10 ar  
    24     9    33 1   
    25    10    11 1   
    26    11    12 ar  
    27    11    14 ar  
    28    12    13 ar  
    29    12    34 1   
    30    13    16 ar  
    31    13    35 1   
    32    14    15 ar  
    33    14    36 1   
    34    15    16 ar  
    35    15    37 1   
    36    16    17 1   
    37    17    18 1   
    38    18    19 1   
    39    18    23 1   
    40    18    38 1   
    41    20    39 1   
    42    21    40 1   
    43    22    41 1   
    44    23    24 1   
    45    23    42 1   
    46    24    43 1   
@<TRIPOS>SUBSTRUCTURE
     1 3X8         1 TEMP              0 ****  ****    0 ROOT
