@<TRIPOS>MOLECULE
3X8
   44    46     1     0     0
SMALL
abcg2


@<TRIPOS>ATOM
      1 C4           4.2430     0.6550     0.3320 c6         1 3X8       0.146300
      2 C5           2.9140     1.3440     0.0120 c6         1 3X8       0.172300
      3 C6           3.1210     2.7580    -0.4870 c3         1 3X8       0.169600
      4 C3           3.9910    -0.8120     0.6640 c6         1 3X8       0.142300
      5 CAH         -5.3310    -1.2540     0.5070 ca         1 3X8      -0.102000
      6 CAI         -6.7110    -1.1230     0.4580 ca         1 3X8      -0.111000
      7 CAJ         -7.2870     0.0480    -0.0170 ca         1 3X8      -0.109000
      8 CAK         -6.4670     1.0860    -0.4420 ca         1 3X8      -0.111000
      9 CAL         -5.0870     0.9560    -0.3890 ca         1 3X8      -0.102000
     10 CAG         -4.4960    -0.2170     0.0860 cp         1 3X8      -0.026000
     11 CAD         -3.0280    -0.3600     0.1420 cp         1 3X8      -0.065000
     12 CAC         -2.4090    -1.0570     1.1820 ca         1 3X8      -0.070000
     13 CAB         -1.0350    -1.2080     1.2280 ca         1 3X8      -0.158500
     14 CAE         -2.2080     0.1930    -0.8400 ca         1 3X8      -0.070000
     15 CAF         -0.8260     0.0600    -0.8030 ca         1 3X8      -0.158500
     16 CAA         -0.2340    -0.6590     0.2300 ca         1 3X8       0.140100
     17 O1           1.0980    -0.8760     0.3530 os         1 3X8      -0.386100
     18 C1           1.9460    -0.6960    -0.7560 c6         1 3X8       0.358300
     19 O5           2.2200     0.6400    -1.0080 os         1 3X8      -0.446000
     20 O6           1.8650     3.3690    -0.6600 oh         1 3X8      -0.711000
     21 O4           4.8170     1.3300     1.4250 oh         1 3X8      -0.722000
     22 O3           5.2380    -1.4170     0.9050 oh         1 3X8      -0.651000
     23 C2           3.2220    -1.4940    -0.4650 c6         1 3X8       0.122300
     24 O2           4.0380    -1.5230    -1.6060 oh         1 3X8      -0.689000
     25 H41          4.8930     0.7160    -0.5530 h1         1 3X8       0.069700
     26 H5           2.3110     1.3760     0.9310 h1         1 3X8       0.073700
     27 H62          3.7350     3.2940     0.2430 h1         1 3X8       0.036200
     28 H61          3.6920     2.7240    -1.4260 h1         1 3X8       0.036200
     29 H31          3.3640    -0.8460     1.5660 h1         1 3X8       0.061700
     30 HAI         -7.3380    -1.9440     0.7840 ha         1 3X8       0.111500
     31 HAJ         -8.3630     0.1510    -0.0570 ha         1 3X8       0.112000
     32 HAK         -6.9030     2.0060    -0.8100 ha         1 3X8       0.111500
     33 HAL         -4.4660     1.7850    -0.7040 ha         1 3X8       0.113500
     34 HAC         -3.0030    -1.4850     1.9800 ha         1 3X8       0.115500
     35 HAB         -0.5750    -1.7540     2.0420 ha         1 3X8       0.130000
     36 HAE         -2.6480     0.7330    -1.6680 ha         1 3X8       0.115500
     37 HAF         -0.2380     0.5270    -1.5800 ha         1 3X8       0.130000
     38 H1           1.4610    -1.0780    -1.6630 h2         1 3X8       0.077700
     39 H63          2.0140     4.2740    -0.9460 ho         1 3X8       0.502000
     40 H42          5.6330     0.8750     1.6590 ho         1 3X8       0.523000
     41 H32          5.1010    -2.2060     1.4380 ho         1 3X8       0.448000
     42 H21          2.9340    -2.5070    -0.1530 h1         1 3X8       0.049700
     43 H22          3.6370    -2.1080    -2.2560 ho         1 3X8       0.504000
     44 HAH         -4.9010    -2.1830     0.8600 ha         1 3X8       0.113500
@<TRIPOS>BOND
     1     1     2 1   
     2     1     4 1   
     3     1    21 1   
     4     1    25 1   
     5     2     3 1   
     6     2    19 1   
     7     2    26 1   
     8     3    20 1   
     9     3    27 1   
    10     3    28 1   
    11     4    22 1   
    12     4    23 1   
    13     4    29 1   
    14     5     6 ar  
    15     5    10 ar  
    16     5    44 1   
    17     6     7 ar  
    18     6    30 1   
    19     7     8 ar  
    20     7    31 1   
    21     8     9 ar  
    22     8    32 1   
    23     9    10 ar  
    24     9    33 1   
    25    10    11 1   
    26    11    12 ar  
    27    11    14 ar  
    28    12    13 ar  
    29    12    34 1   
    30    13    16 ar  
    31    13    35 1   
    32    14    15 ar  
    33    14    36 1   
    34    15    16 ar  
    35    15    37 1   
    36    16    17 1   
    37    17    18 1   
    38    18    19 1   
    39    18    23 1   
    40    18    38 1   
    41    20    39 1   
    42    21    40 1   
    43    22    41 1   
    44    23    24 1   
    45    23    42 1   
    46    24    43 1   
@<TRIPOS>SUBSTRUCTURE
     1 3X8         1 TEMP              0 ****  ****    0 ROOT
