@<TRIPOS>MOLECULE
3X9
   40    40     1     0     0
SMALL
bcc


@<TRIPOS>ATOM
      1 CAC         -2.8000     1.8660   -16.5720 c3         1 3X9      -0.083100
      2 CAS         -2.3980     1.0300   -15.3580 c5         1 3X9       0.224400
      3 CAD         -2.9070    -0.4050   -15.5450 c3         1 3X9      -0.083100
      4 NAQ         -0.9450     1.1600   -15.1560 n3         1 3X9      -0.517100
      5 OAH         -0.2120     0.2100   -15.8630 oh         1 3X9      -0.421300
      6 CAR         -0.6080     1.1950   -13.7260 c5         1 3X9       0.216400
      7 CAA          0.5490     2.1660   -13.4970 c3         1 3X9      -0.081600
      8 CAB         -0.2620    -0.1620   -13.0980 c3         1 3X9      -0.081600
      9 CAI         -1.9050     1.7030   -13.1720 c2         1 3X9      -0.170200
     10 CAO         -2.8950     1.6130   -14.0540 c2         1 3X9      -0.097400
     11 CAJ         -4.3230     1.9540   -13.7950 c3         1 3X9       0.059900
     12 SAL         -5.0620     0.5550   -12.8650 ss         1 3X9      -0.277100
     13 N           -6.8620     0.3640    -9.5200 n8         1 3X9      -0.887800
     14 CA          -7.7410     1.4050   -10.0390 c3         1 3X9       0.008500
     15 CB          -7.0880     2.1260   -11.2000 c3         1 3X9       0.051700
     16 SG          -7.0430     1.0770   -12.7010 ss         1 3X9      -0.118100
     17 C           -9.1730     0.9210   -10.3970 c          1 3X9       0.907600
     18 O           -9.7260     1.4730   -11.3710 o          1 3X9      -0.826800
     19 H1          -3.8740     1.8190   -16.7570 hc         1 3X9       0.041367
     20 H2          -2.5200     2.9110   -16.4370 hc         1 3X9       0.041367
     21 H3          -2.3010     1.4930   -17.4680 hc         1 3X9       0.041367
     22 H4          -2.6130    -1.0580   -14.7240 hc         1 3X9       0.041367
     23 H5          -3.9960    -0.4060   -15.5910 hc         1 3X9       0.041367
     24 H6          -2.5410    -0.8370   -16.4770 hc         1 3X9       0.041367
     25 HAA          0.2980     0.7250   -16.4960 ho         1 3X9       0.404000
     26 H7           0.7710     2.2650   -12.4330 hc         1 3X9       0.038033
     27 H8           1.4540     1.8090   -13.9920 hc         1 3X9       0.038033
     28 H9           0.3110     3.1540   -13.8920 hc         1 3X9       0.038033
     29 H10         -0.1310    -0.0400   -12.0210 hc         1 3X9       0.038033
     30 H11         -1.0480    -0.9000   -13.2510 hc         1 3X9       0.038033
     31 H12          0.6700    -0.5620   -13.4980 hc         1 3X9       0.038033
     32 H13         -1.9970     2.0670   -12.1550 ha         1 3X9       0.151000
     33 H16         -4.4100     2.8540   -13.1880 h1         1 3X9       0.066200
     34 H17         -4.8890     2.0970   -14.7150 h1         1 3X9       0.066200
     35 HA          -7.8560     2.1540    -9.2410 h1         1 3X9       0.046700
     36 HB2         -6.0640     2.4200   -10.9670 h1         1 3X9       0.060200
     37 HB3         -7.6440     3.0220   -11.4640 h1         1 3X9       0.060200
     38 OXT         -9.6550     0.0410    -9.6580 o          1 3X9      -0.826800
     39 H           -7.3920    -0.1600    -8.8330 hn         1 3X9       0.335800
     40 HN          -6.6880    -0.3050   -10.2640 hn         1 3X9       0.335800
@<TRIPOS>BOND
     1     1     2 1   
     2     1    19 1   
     3     1    20 1   
     4     1    21 1   
     5     2     3 1   
     6     2     4 1   
     7     2    10 1   
     8     3    22 1   
     9     3    23 1   
    10     3    24 1   
    11     4     5 1   
    12     4     6 1   
    13     5    25 1   
    14     6     7 1   
    15     6     8 1   
    16     6     9 1   
    17     7    26 1   
    18     7    27 1   
    19     7    28 1   
    20     8    29 1   
    21     8    30 1   
    22     8    31 1   
    23     9    10 2   
    24     9    32 1   
    25    10    11 1   
    26    11    12 1   
    27    11    33 1   
    28    11    34 1   
    29    12    16 1   
    30    13    14 1   
    31    13    39 1   
    32    13    40 1   
    33    14    15 1   
    34    14    17 1   
    35    14    35 1   
    36    15    16 1   
    37    15    36 1   
    38    15    37 1   
    39    17    18 1   
    40    17    38 1   
@<TRIPOS>SUBSTRUCTURE
     1 3X9         1 TEMP              0 ****  ****    0 ROOT
