@<TRIPOS>MOLECULE
3X9
   40    40     1     0     0
SMALL
No Charge or Current Charge


@<TRIPOS>ATOM
      1 CAC         -2.7080     1.9390   -16.6640 c3         1 3X9      -0.083100
      2 CAS         -2.3880     1.0260   -15.4540 c5         1 3X9       0.224400
      3 CAD         -2.9180    -0.3990   -15.7900 c3         1 3X9      -0.083100
      4 NAQ         -0.8760     1.1110   -15.1250 n3         1 3X9      -0.517100
      5 OAH         -0.0620     0.0800   -15.8100 oh         1 3X9      -0.460300
      6 CAR         -0.7570     1.0630   -13.5870 c5         1 3X9       0.216400
      7 CAA          0.3660     1.9790   -12.9670 c3         1 3X9      -0.081600
      8 CAB         -0.5520    -0.3610   -12.9930 c3         1 3X9      -0.081600
      9 CAI         -2.1490     1.5740   -13.1730 c2         1 3X9      -0.220200
     10 CAO         -3.0730     1.5390   -14.1440 c2         1 3X9      -0.097400
     11 CAJ         -4.5420     1.8990   -14.0140 c3         1 3X9       0.107800
     12 SAL         -5.3910     0.6150   -12.9930 ss         1 3X9      -0.325000
     13 N           -6.0680     1.0780    -9.7990 n8         1 3X9      -0.998200
     14 CA          -7.4480     1.6240   -10.0920 c3         1 3X9       0.008500
     15 CB          -7.4790     2.3930   -11.4420 c3         1 3X9       0.099600
     16 SG          -7.3800     1.2750   -12.9240 ss         1 3X9      -0.166000
     17 C           -8.6530     0.6010   -10.0230 c          1 3X9       0.697000
     18 O           -9.7920     1.0460   -10.0730 o          1 3X9      -0.721500
     19 H1          -3.7740     1.9260   -16.9180 hc         1 3X9       0.041367
     20 H2          -2.4290     2.9790   -16.4540 hc         1 3X9       0.041367
     21 H3          -2.1540     1.6210   -17.5560 hc         1 3X9       0.041367
     22 H4          -2.7500    -1.1050   -14.9730 hc         1 3X9       0.041367
     23 H5          -3.9980    -0.3810   -15.9760 hc         1 3X9       0.041367
     24 H6          -2.4420    -0.8070   -16.6890 hc         1 3X9       0.041367
     25 HAA          0.5760     0.5890   -16.3630 ho         1 3X9       0.443000
     26 H7           0.3230     1.9830   -11.8710 hc         1 3X9       0.038033
     27 H8           1.3650     1.6370   -13.2640 hc         1 3X9       0.038033
     28 H9           0.2550     3.0150   -13.3070 hc         1 3X9       0.038033
     29 H10         -0.5910    -0.3370   -11.8970 hc         1 3X9       0.038033
     30 H11         -1.3210    -1.0640   -13.3210 hc         1 3X9       0.038033
     31 H12          0.4230    -0.7770   -13.2740 hc         1 3X9       0.038033
     32 H13         -2.3890     1.8860   -12.1530 ha         1 3X9       0.201000
     33 H16         -4.6500     2.8770   -13.5290 h1         1 3X9       0.066200
     34 H17         -5.0240     1.9450   -14.9980 h1         1 3X9       0.066200
     35 HA          -7.6570     2.3560    -9.2990 h1         1 3X9       0.046700
     36 HB2         -6.6580     3.1200   -11.4850 h1         1 3X9       0.060200
     37 HB3         -8.4210     2.9520   -11.5080 h1         1 3X9       0.060200
     38 OXT         -8.4080    -0.5840    -9.8330 o          1 3X9      -0.721500
     39 H           -6.1600     0.3460    -9.0850 hn         1 3X9       0.391000
     40 HN          -5.7640     0.5550   -10.6310 hn         1 3X9       0.391000
@<TRIPOS>BOND
     1     1     2 1   
     2     1    19 1   
     3     1    20 1   
     4     1    21 1   
     5     2     3 1   
     6     2     4 1   
     7     2    10 1   
     8     3    22 1   
     9     3    23 1   
    10     3    24 1   
    11     4     5 1   
    12     4     6 1   
    13     5    25 1   
    14     6     7 1   
    15     6     8 1   
    16     6     9 1   
    17     7    26 1   
    18     7    27 1   
    19     7    28 1   
    20     8    29 1   
    21     8    30 1   
    22     8    31 1   
    23     9    10 2   
    24     9    32 1   
    25    10    11 1   
    26    11    12 1   
    27    11    33 1   
    28    11    34 1   
    29    12    16 1   
    30    13    14 1   
    31    13    39 1   
    32    13    40 1   
    33    14    15 1   
    34    14    17 1   
    35    14    35 1   
    36    15    16 1   
    37    15    36 1   
    38    15    37 1   
    39    17    18 1   
    40    17    38 1   
@<TRIPOS>SUBSTRUCTURE
     1 3X9         1 TEMP              0 ****  ****    0 ROOT
