@<TRIPOS>MOLECULE
3XA
   56    58     1     0     0
SMALL
abcg2


@<TRIPOS>ATOM
      1 O1           1.2080    -2.3170     0.0220 os         1 3XA      -0.466000
      2 C2           0.3200    -3.3920    -0.1810 c3         1 3XA       0.159600
      3 C3          -1.0350    -3.0050     0.3640 c3         1 3XA       0.163800
      4 N4          -1.5870    -1.8790    -0.3680 n7         1 3XA      -0.854400
      5 C5          -2.8730    -1.4660     0.1340 c3         1 3XA       0.114800
      6 C6          -3.5710    -0.5120    -0.8160 c3         1 3XA       0.240300
      7 F7          -2.7720     0.5780    -1.0360 f          1 3XA      -0.110500
      8 F8          -3.7270    -1.0990    -2.0360 f          1 3XA      -0.110500
      9 N1           4.6740    -2.9760    -0.2430 n7         1 3XA      -0.859400
     10 C11         -4.9100    -0.0590    -0.2960 ca         1 3XA      -0.136300
     11 C12         -4.9860     1.0670     0.5170 ca         1 3XA      -0.121000
     12 C13         -6.2170     1.4310     1.0260 ca         1 3XA       0.167000
     13 F13         -6.2900     2.5200     1.8070 f          1 3XA      -0.176000
     14 C14         -7.3710     0.7220     0.7590 ca         1 3XA      -0.135000
     15 C15         -7.2770    -0.4000    -0.0500 ca         1 3XA      -0.090000
     16 C16         -6.0550    -0.7940    -0.5790 ca         1 3XA      -0.094000
     17 N1A          4.2140     1.4320     1.1990 nb         1 3XA      -0.755000
     18 C9           3.3470    -3.5270    -0.0480 c5         1 3XA       0.114800
     19 C2A          3.4530     1.2540     0.1180 ca         1 3XA       0.395300
     20 C10          2.4320    -2.4480    -0.6520 c5         1 3XA       0.168300
     21 C3A          3.4860     2.1120    -0.9680 ca         1 3XA      -0.215000
     22 C4           3.2710    -1.1440    -0.5620 c5         1 3XA      -0.052700
     23 C4A          4.3540     3.2080    -0.9440 ca         1 3XA       0.001700
     24 C17          4.5540    -1.5840     0.1500 c5         1 3XA       0.148800
     25 C5A          5.1510     3.3810     0.1700 ca         1 3XA      -0.233000
     26 C6A          5.0510     2.4650     1.2290 ca         1 3XA       0.597900
     27 N6A          5.8520     2.5800     2.3300 nv         1 3XA      -1.056900
     28 C7A          2.5680     0.0380     0.1070 c3         1 3XA      -0.116700
     29 C8A          4.3960     4.1750    -2.0880 c3         1 3XA      -0.053800
     30 H2           0.2370    -3.6260    -1.2520 h1         1 3XA       0.034200
     31 H2A          0.6670    -4.3020     0.3260 h1         1 3XA       0.034200
     32 H3          -1.7030    -3.8620     0.2490 h1         1 3XA       0.037700
     33 H3A         -0.9530    -2.8160     1.4460 h1         1 3XA       0.037700
     34 HN4         -0.9350    -1.1070    -0.3100 hn         1 3XA       0.435000
     35 H5          -3.5160    -2.3440     0.2410 h1         1 3XA       0.050700
     36 H5A         -2.8390    -0.9940     1.1270 h1         1 3XA       0.050700
     37 HN1          5.3680    -3.4680     0.3040 hn         1 3XA       0.415000
     38 H12         -4.1120     1.6560     0.7610 ha         1 3XA       0.144000
     39 H14         -8.3190     1.0360     1.1750 ha         1 3XA       0.135000
     40 H15         -8.1670    -0.9730    -0.2710 ha         1 3XA       0.122000
     41 H16         -6.0100    -1.6740    -1.2050 ha         1 3XA       0.132000
     42 H6           3.2430    -4.5000    -0.5330 h1         1 3XA       0.040200
     43 H2'A         3.0820    -3.6510     1.0140 h1         1 3XA       0.040200
     44 H9           2.2370    -2.6800    -1.7080 h1         1 3XA       0.046700
     45 H3AA         2.8430     1.9340    -1.8220 ha         1 3XA       0.124000
     46 H4           3.5300    -0.8460    -1.5820 hc         1 3XA       0.062700
     47 H10          4.4400    -1.4500     1.2380 h1         1 3XA       0.049700
     48 H5'A         5.4270    -1.0070    -0.1600 h1         1 3XA       0.049700
     49 H5AA         5.8440     4.2120     0.2330 ha         1 3XA       0.118000
     50 HN6A         5.5540     2.0740     3.1480 hn         1 3XA       0.467000
     51 HN6B         6.2460     3.4840     2.5270 hn         1 3XA       0.467000
     52 H7A          2.3000    -0.2150     1.1340 hc         1 3XA       0.064700
     53 H7AA         1.6430     0.2680    -0.4260 hc         1 3XA       0.064700
     54 H8A          3.5020     4.8010    -2.0920 hc         1 3XA       0.046700
     55 H8AA         5.2620     4.8320    -2.0310 hc         1 3XA       0.046700
     56 H8AB         4.4240     3.6530    -3.0450 hc         1 3XA       0.046700
@<TRIPOS>BOND
     1     1     2 1   
     2     1    20 1   
     3     2     3 1   
     4     2    30 1   
     5     2    31 1   
     6     3     4 1   
     7     3    32 1   
     8     3    33 1   
     9     4     5 1   
    10     4    34 1   
    11     5     6 1   
    12     5    35 1   
    13     5    36 1   
    14     6     7 1   
    15     6     8 1   
    16     6    10 1   
    17     9    18 1   
    18     9    24 1   
    19     9    37 1   
    20    10    11 ar  
    21    10    16 ar  
    22    11    12 ar  
    23    11    38 1   
    24    12    13 1   
    25    12    14 ar  
    26    14    15 ar  
    27    14    39 1   
    28    15    16 ar  
    29    15    40 1   
    30    16    41 1   
    31    17    19 ar  
    32    17    26 ar  
    33    18    20 1   
    34    18    42 1   
    35    18    43 1   
    36    19    21 ar  
    37    19    28 1   
    38    20    22 1   
    39    20    44 1   
    40    21    23 ar  
    41    21    45 1   
    42    22    24 1   
    43    22    28 1   
    44    22    46 1   
    45    23    25 ar  
    46    23    29 1   
    47    24    47 1   
    48    24    48 1   
    49    25    26 ar  
    50    25    49 1   
    51    26    27 1   
    52    27    50 1   
    53    27    51 1   
    54    28    52 1   
    55    28    53 1   
    56    29    54 1   
    57    29    55 1   
    58    29    56 1   
@<TRIPOS>SUBSTRUCTURE
     1 3XA         1 TEMP              0 ****  ****    0 ROOT
