@<TRIPOS>MOLECULE
3XA
   56    58     1     0     0
SMALL
No Charge or Current Charge


@<TRIPOS>ATOM
      1 O1           1.2800    -2.5680    -0.4720 os         1 3XA      -0.466000
      2 C2           0.4380    -3.6990    -0.7940 c3         1 3XA       0.159600
      3 C3          -0.9650    -3.4470    -0.1860 c3         1 3XA       0.163800
      4 N4          -1.5400    -2.1780    -0.6860 n7         1 3XA      -0.854400
      5 C5          -2.7730    -1.7150     0.0070 c3         1 3XA       0.114800
      6 C6          -3.2820    -0.3280    -0.4900 c3         1 3XA       0.240300
      7 F7          -2.2800     0.5770    -0.3660 f          1 3XA      -0.110500
      8 F8          -3.5510    -0.4030    -1.8160 f          1 3XA      -0.110500
      9 N1           4.4360    -2.8170     0.6480 n7         1 3XA      -0.859400
     10 C11         -4.5270     0.1050     0.2990 ca         1 3XA      -0.136300
     11 C12         -4.4120     0.9280     1.4430 ca         1 3XA      -0.121000
     12 C13         -5.5560     1.3060     2.1640 ca         1 3XA       0.167000
     13 F13         -5.4310     2.0950     3.2540 f          1 3XA      -0.176000
     14 C14         -6.8260     0.8690     1.7630 ca         1 3XA      -0.135000
     15 C15         -6.9540     0.0430     0.6330 ca         1 3XA      -0.090000
     16 C16         -5.8110    -0.3380    -0.0920 ca         1 3XA      -0.094000
     17 N1A          2.9470     1.9460     0.6620 nb         1 3XA      -0.755000
     18 C9           3.5080    -3.6100    -0.2080 c5         1 3XA       0.114800
     19 C2A          3.1750     1.3580    -0.5340 ca         1 3XA       0.395300
     20 C10          2.6330    -2.5690    -1.0040 c5         1 3XA       0.168300
     21 C3A          4.0650     1.8940    -1.4850 ca         1 3XA      -0.215000
     22 C4           3.3060    -1.2070    -0.6460 c5         1 3XA      -0.052700
     23 C4A          4.7500     3.0860    -1.1980 ca         1 3XA       0.001700
     24 C17          3.7760    -1.5010     0.8010 c5         1 3XA       0.148800
     25 C5A          4.5030     3.6870     0.0450 ca         1 3XA      -0.233000
     26 C6A          3.6040     3.0670     0.9140 ca         1 3XA       0.597900
     27 N6A          3.2870     3.5510     2.1160 nv         1 3XA      -1.056900
     28 C7A          2.4280     0.0630    -0.8160 c3         1 3XA      -0.116700
     29 C8A          5.7160     3.7010    -2.1970 c3         1 3XA      -0.053800
     30 H2           0.3470    -3.8160    -1.8820 h1         1 3XA       0.034200
     31 H2A          0.8460    -4.6300    -0.3810 h1         1 3XA       0.034200
     32 H3          -1.6220    -4.2920    -0.4330 h1         1 3XA       0.037700
     33 H3A         -0.8620    -3.4160     0.9070 h1         1 3XA       0.037700
     34 HN4         -0.8090    -1.4640    -0.5590 hn         1 3XA       0.435000
     35 H5          -3.5800    -2.4490    -0.1290 h1         1 3XA       0.050700
     36 H5A         -2.5910    -1.6390     1.0880 h1         1 3XA       0.050700
     37 HN1          4.5660    -3.2700     1.5640 hn         1 3XA       0.415000
     38 H12         -3.4390     1.2760     1.7820 ha         1 3XA       0.144000
     39 H14         -7.7060     1.1660     2.3280 ha         1 3XA       0.135000
     40 H15         -7.9370    -0.3030     0.3200 ha         1 3XA       0.122000
     41 H16         -5.9280    -0.9840    -0.9610 ha         1 3XA       0.132000
     42 H6           4.0740    -4.2610    -0.8880 h1         1 3XA       0.040200
     43 H2'A         2.8810    -4.2580     0.4180 h1         1 3XA       0.040200
     44 H9           2.6060    -2.7560    -2.0860 h1         1 3XA       0.046700
     45 H3AA         4.2160     1.3860    -2.4330 ha         1 3XA       0.124000
     46 H4           4.1810    -1.0620    -1.2910 hc         1 3XA       0.062700
     47 H10          2.9230    -1.5620     1.4920 h1         1 3XA       0.049700
     48 H5'A         4.4700    -0.7380     1.1810 h1         1 3XA       0.049700
     49 H5AA         4.9980     4.6100     0.3290 ha         1 3XA       0.118000
     50 HN6A         2.4600     3.1390     2.5310 hn         1 3XA       0.467000
     51 HN6B         3.4320     4.5410     2.2780 hn         1 3XA       0.467000
     52 H7A          1.5460    -0.0020    -0.1670 hc         1 3XA       0.064700
     53 H7AA         2.0370     0.0970    -1.8390 hc         1 3XA       0.064700
     54 H8A          5.1880     4.3660    -2.8900 hc         1 3XA       0.046700
     55 H8AA         6.4920     4.2890    -1.6930 hc         1 3XA       0.046700
     56 H8AB         6.2200     2.9290    -2.7900 hc         1 3XA       0.046700
@<TRIPOS>BOND
     1     1     2 1   
     2     1    20 1   
     3     2     3 1   
     4     2    30 1   
     5     2    31 1   
     6     3     4 1   
     7     3    32 1   
     8     3    33 1   
     9     4     5 1   
    10     4    34 1   
    11     5     6 1   
    12     5    35 1   
    13     5    36 1   
    14     6     7 1   
    15     6     8 1   
    16     6    10 1   
    17     9    18 1   
    18     9    24 1   
    19     9    37 1   
    20    10    11 ar  
    21    10    16 ar  
    22    11    12 ar  
    23    11    38 1   
    24    12    13 1   
    25    12    14 ar  
    26    14    15 ar  
    27    14    39 1   
    28    15    16 ar  
    29    15    40 1   
    30    16    41 1   
    31    17    19 ar  
    32    17    26 ar  
    33    18    20 1   
    34    18    42 1   
    35    18    43 1   
    36    19    21 ar  
    37    19    28 1   
    38    20    22 1   
    39    20    44 1   
    40    21    23 ar  
    41    21    45 1   
    42    22    24 1   
    43    22    28 1   
    44    22    46 1   
    45    23    25 ar  
    46    23    29 1   
    47    24    47 1   
    48    24    48 1   
    49    25    26 ar  
    50    25    49 1   
    51    26    27 1   
    52    27    50 1   
    53    27    51 1   
    54    28    52 1   
    55    28    53 1   
    56    29    54 1   
    57    29    55 1   
    58    29    56 1   
@<TRIPOS>SUBSTRUCTURE
     1 3XA         1 TEMP              0 ****  ****    0 ROOT
