@<TRIPOS>MOLECULE
3XB
   56    58     1     0     0
SMALL
No Charge or Current Charge


@<TRIPOS>ATOM
      1 C1          -0.1980    -3.4160    -1.3920 c3         1 3XB       0.156600
      2 O1          -1.1200    -2.4250    -0.8850 os         1 3XB      -0.470000
      3 C2           1.1610    -2.7210    -1.6610 c3         1 3XB       0.162800
      4 N2           1.6770    -2.0720    -0.4350 n7         1 3XB      -0.853400
      5 C3           2.8420    -1.1670    -0.6310 c3         1 3XB       0.113800
      6 C4           3.2840    -0.4320     0.6710 c3         1 3XB       0.240300
      7 F5           2.2200     0.2380     1.1800 f          1 3XB      -0.110500
      8 F6           3.6230    -1.3520     1.6080 f          1 3XB      -0.110500
      9 N1          -3.0740    -2.8580     1.8070 n7         1 3XB      -0.858400
     10 C11          4.4570     0.5170     0.3850 ca         1 3XB      -0.136300
     11 C12          4.2300     1.8810     0.0870 ca         1 3XB      -0.120000
     12 C13          5.3090     2.7360    -0.1870 ca         1 3XB       0.167000
     13 F13          5.0790     4.0380    -0.4670 f          1 3XB      -0.176000
     14 C14          6.6250     2.2490    -0.1750 ca         1 3XB      -0.135000
     15 C15          6.8620     0.8940     0.1100 ca         1 3XB      -0.090000
     16 C16          5.7840     0.0330     0.3860 ca         1 3XB      -0.095000
     17 N1A         -5.2340     0.8820    -1.1610 nb         1 3XB      -0.754000
     18 C9          -2.4550    -3.7110     0.7500 c5         1 3XB       0.113800
     19 C2A         -3.9960     0.8270    -0.6220 ca         1 3XB       0.396300
     20 C10         -2.4720    -2.8630    -0.5770 c5         1 3XB       0.167300
     21 C3A         -3.5220     1.7870     0.2930 ca         1 3XB      -0.218000
     22 C17         -3.3160    -1.6130    -0.1750 c5         1 3XB      -0.054700
     23 C4A         -4.3560     2.8500     0.6760 ca         1 3XB       0.000700
     24 C5          -2.9140    -1.4740     1.3140 c5         1 3XB       0.148800
     25 C5A         -5.6380     2.8980     0.1090 ca         1 3XB      -0.234000
     26 C6A         -6.0030     1.8960    -0.7920 ca         1 3XB       0.600900
     27 N6A         -7.1970     1.8370    -1.3860 nv         1 3XB      -1.056900
     28 C7A         -3.1200    -0.3420    -1.0470 c3         1 3XB      -0.112700
     29 C8A         -3.8860     3.9070     1.6610 c3         1 3XB      -0.053800
     30 H1          -0.0500    -4.2290    -0.6700 h1         1 3XB       0.034700
     31 H1A         -0.5720    -3.8520    -2.3270 h1         1 3XB       0.034700
     32 H2           1.8790    -3.4620    -2.0380 h1         1 3XB       0.039200
     33 H2A          1.0090    -1.9750    -2.4530 h1         1 3XB       0.039200
     34 HN2          0.8960    -1.5200    -0.0550 hn         1 3XB       0.435000
     35 H3           3.7010    -1.7350    -1.0150 h1         1 3XB       0.051700
     36 H3A          2.6030    -0.4030    -1.3830 h1         1 3XB       0.051700
     37 HN1         -2.5910    -2.9840     2.7070 hn         1 3XB       0.415000
     38 H12          3.2210     2.2850     0.0630 ha         1 3XB       0.145000
     39 H14          7.4540     2.9190    -0.3890 ha         1 3XB       0.135000
     40 H15          7.8800     0.5100     0.1160 ha         1 3XB       0.122000
     41 H16          5.9870    -1.0150     0.5980 ha         1 3XB       0.131000
     42 H6          -1.4290    -3.9790     1.0360 h1         1 3XB       0.044200
     43 H2'A        -3.0170    -4.6480     0.6340 h1         1 3XB       0.044200
     44 H9          -2.8930    -3.4020    -1.4370 h1         1 3XB       0.044700
     45 H3AA        -2.5180     1.7010     0.7000 ha         1 3XB       0.122000
     46 H4          -4.3810    -1.8650    -0.2420 hc         1 3XB       0.079700
     47 H5          -3.5590    -0.7720     1.8610 h1         1 3XB       0.040200
     48 H5'A        -1.8720    -1.1350     1.4170 h1         1 3XB       0.040200
     49 H5A         -6.3310     3.6950     0.3580 ha         1 3XB       0.118000
     50 HN6A        -7.9630     2.3270    -0.9390 hn         1 3XB       0.468500
     51 HN6B        -7.4160     0.9500    -1.8240 hn         1 3XB       0.468500
     52 H7A         -3.3210    -0.5890    -2.0960 hc         1 3XB       0.061700
     53 H7AA        -2.0710    -0.0260    -1.0180 hc         1 3XB       0.061700
     54 H8A         -3.3590     4.7160     1.1410 hc         1 3XB       0.046367
     55 H8AA        -4.7280     4.3500     2.2050 hc         1 3XB       0.046367
     56 H8AB        -3.2000     3.4820     2.4030 hc         1 3XB       0.046367
@<TRIPOS>BOND
     1     1     2 1   
     2     1     3 1   
     3     1    30 1   
     4     1    31 1   
     5     2    20 1   
     6     3     4 1   
     7     3    32 1   
     8     3    33 1   
     9     4     5 1   
    10     4    34 1   
    11     5     6 1   
    12     5    35 1   
    13     5    36 1   
    14     6     7 1   
    15     6     8 1   
    16     6    10 1   
    17     9    18 1   
    18     9    24 1   
    19     9    37 1   
    20    10    11 ar  
    21    10    16 ar  
    22    11    12 ar  
    23    11    38 1   
    24    12    13 1   
    25    12    14 ar  
    26    14    15 ar  
    27    14    39 1   
    28    15    16 ar  
    29    15    40 1   
    30    16    41 1   
    31    17    19 ar  
    32    17    26 ar  
    33    18    20 1   
    34    18    42 1   
    35    18    43 1   
    36    19    21 ar  
    37    19    28 1   
    38    20    22 1   
    39    20    44 1   
    40    21    23 ar  
    41    21    45 1   
    42    22    24 1   
    43    22    28 1   
    44    22    46 1   
    45    23    25 ar  
    46    23    29 1   
    47    24    47 1   
    48    24    48 1   
    49    25    26 ar  
    50    25    49 1   
    51    26    27 1   
    52    27    50 1   
    53    27    51 1   
    54    28    52 1   
    55    28    53 1   
    56    29    54 1   
    57    29    55 1   
    58    29    56 1   
@<TRIPOS>SUBSTRUCTURE
     1 3XB         1 TEMP              0 ****  ****    0 ROOT
