@<TRIPOS>MOLECULE
3XB
   56    58     1     0     0
SMALL
abcg2


@<TRIPOS>ATOM
      1 C1          -0.1440    -3.0370    -1.2690 c3         1 3XB       0.156600
      2 O1          -1.0670    -2.0740    -0.8170 os         1 3XB      -0.470000
      3 C2           1.1500    -2.3330    -1.6070 c3         1 3XB       0.162800
      4 N2           1.7580    -1.7660    -0.4180 n7         1 3XB      -0.853400
      5 C3           2.9310    -0.9830    -0.7170 c3         1 3XB       0.113800
      6 C4           3.7240    -0.6520     0.5320 c3         1 3XB       0.240300
      7 F5           2.9080    -0.0250     1.4350 f          1 3XB      -0.110500
      8 F6           4.1270    -1.8000     1.1470 f          1 3XB      -0.110500
      9 N1          -3.3990    -2.9470     1.6570 n7         1 3XB      -0.858400
     10 C11          4.9200     0.2150     0.2450 ca         1 3XB      -0.136300
     11 C12          4.8030     1.5990     0.3100 ca         1 3XB      -0.120000
     12 C13          5.9020     2.3700    -0.0120 ca         1 3XB       0.167000
     13 F13          5.7870     3.7050     0.0570 f          1 3XB      -0.176000
     14 C14          7.1090     1.8220    -0.3970 ca         1 3XB      -0.135000
     15 C15          7.2080     0.4400    -0.4610 ca         1 3XB      -0.090000
     16 C16          6.1230    -0.3650    -0.1420 ca         1 3XB      -0.095000
     17 N1A         -5.1490     0.7210    -1.0980 nb         1 3XB      -0.754000
     18 C9          -2.2000    -3.3530     0.9450 c5         1 3XB       0.113800
     19 C2A         -4.0190     0.9090    -0.4120 ca         1 3XB       0.396300
     20 C10         -2.2990    -2.6060    -0.4020 c5         1 3XB       0.167300
     21 C3A         -3.8520     1.9520     0.4810 ca         1 3XB      -0.218000
     22 C17         -3.3250    -1.4770    -0.1360 c5         1 3XB      -0.054700
     23 C4A         -4.9070     2.8490     0.6850 ca         1 3XB       0.000700
     24 C5          -3.5450    -1.5310     1.3750 c5         1 3XB       0.148800
     25 C5A         -6.0740     2.6520    -0.0230 ca         1 3XB      -0.234000
     26 C6A         -6.1550     1.5690    -0.9160 ca         1 3XB       0.600900
     27 N6A         -7.2740     1.3740    -1.6740 nv         1 3XB      -1.056900
     28 C7A         -2.9260    -0.0960    -0.6490 c3         1 3XB      -0.112700
     29 C8A         -4.7570     3.9990     1.6340 c3         1 3XB      -0.053800
     30 H1           0.0450    -3.8010    -0.5030 h1         1 3XB       0.034700
     31 H1A         -0.5250    -3.5550    -2.1600 h1         1 3XB       0.034700
     32 H2           1.8340    -3.0670    -2.0410 h1         1 3XB       0.039200
     33 H2A          0.9590    -1.5830    -2.3910 h1         1 3XB       0.039200
     34 HN2          1.0720    -1.1810     0.0450 hn         1 3XB       0.435000
     35 H3           3.5890    -1.5550    -1.3770 h1         1 3XB       0.051700
     36 H3A          2.7160    -0.0410    -1.2440 h1         1 3XB       0.051700
     37 HN1         -3.3230    -3.1330     2.6480 hn         1 3XB       0.415000
     38 H12          3.8790     2.0800     0.6030 ha         1 3XB       0.145000
     39 H14          7.9490     2.4570    -0.6440 ha         1 3XB       0.135000
     40 H15          8.1430    -0.0130    -0.7620 ha         1 3XB       0.122000
     41 H16          6.2260    -1.4400    -0.2030 ha         1 3XB       0.131000
     42 H6          -1.2730    -3.0290     1.4420 h1         1 3XB       0.044200
     43 H2'A        -2.1570    -4.4380     0.8350 h1         1 3XB       0.044200
     44 H9          -2.6840    -3.2740    -1.1840 h1         1 3XB       0.044700
     45 H3AA        -2.9200     2.0650     1.0200 ha         1 3XB       0.122000
     46 H4          -4.2620    -1.7590    -0.6240 hc         1 3XB       0.079700
     47 H5          -4.5310    -1.1680     1.6710 h1         1 3XB       0.040200
     48 H5'A        -2.7950    -0.9040     1.8850 h1         1 3XB       0.040200
     49 H5A         -6.9200     3.3170     0.1020 ha         1 3XB       0.118000
     50 HN6A        -8.1310     1.7970    -1.3600 hn         1 3XB       0.468500
     51 HN6B        -7.3880     0.4550    -2.0700 hn         1 3XB       0.468500
     52 H7A         -2.7180    -0.1440    -1.7210 hc         1 3XB       0.061700
     53 H7AA        -2.0100     0.2390    -0.1600 hc         1 3XB       0.061700
     54 H8A         -4.1210     4.7730     1.1980 hc         1 3XB       0.046367
     55 H8AA        -5.7160     4.4550     1.8730 hc         1 3XB       0.046367
     56 H8AB        -4.2840     3.6840     2.5640 hc         1 3XB       0.046367
@<TRIPOS>BOND
     1     1     2 1   
     2     1     3 1   
     3     1    30 1   
     4     1    31 1   
     5     2    20 1   
     6     3     4 1   
     7     3    32 1   
     8     3    33 1   
     9     4     5 1   
    10     4    34 1   
    11     5     6 1   
    12     5    35 1   
    13     5    36 1   
    14     6     7 1   
    15     6     8 1   
    16     6    10 1   
    17     9    18 1   
    18     9    24 1   
    19     9    37 1   
    20    10    11 ar  
    21    10    16 ar  
    22    11    12 ar  
    23    11    38 1   
    24    12    13 1   
    25    12    14 ar  
    26    14    15 ar  
    27    14    39 1   
    28    15    16 ar  
    29    15    40 1   
    30    16    41 1   
    31    17    19 ar  
    32    17    26 ar  
    33    18    20 1   
    34    18    42 1   
    35    18    43 1   
    36    19    21 ar  
    37    19    28 1   
    38    20    22 1   
    39    20    44 1   
    40    21    23 ar  
    41    21    45 1   
    42    22    24 1   
    43    22    28 1   
    44    22    46 1   
    45    23    25 ar  
    46    23    29 1   
    47    24    47 1   
    48    24    48 1   
    49    25    26 ar  
    50    25    49 1   
    51    26    27 1   
    52    27    50 1   
    53    27    51 1   
    54    28    52 1   
    55    28    53 1   
    56    29    54 1   
    57    29    55 1   
    58    29    56 1   
@<TRIPOS>SUBSTRUCTURE
     1 3XB         1 TEMP              0 ****  ****    0 ROOT
