@<TRIPOS>MOLECULE
3XC
   56    58     1     0     0
SMALL
abcg2


@<TRIPOS>ATOM
      1 C1           0.2250     2.9650    -1.2620 c3         1 3XC       0.157600
      2 O1           1.1630     2.0100    -0.8220 os         1 3XC      -0.469000
      3 C2          -1.0590     2.2470    -1.6100 c3         1 3XC       0.162800
      4 N2          -1.6580     1.6560    -0.4280 n7         1 3XC      -0.854400
      5 C3          -2.8440     0.8930    -0.7310 c3         1 3XC       0.113800
      6 C4          -3.6160     0.5230     0.5200 c3         1 3XC       0.244300
      7 F5          -2.7920    -0.1630     1.3720 f          1 3XC      -0.112000
      8 F6          -3.9740     1.6530     1.1960 f          1 3XC      -0.112000
      9 N1           3.4880     2.9390     1.6610 n7         1 3XC      -0.857400
     10 C11         -4.8390    -0.3020     0.2280 ca         1 3XC      -0.181300
     11 C12         -4.7680    -1.6910     0.2180 ca         1 3XC      -0.050000
     12 C13         -5.8830    -2.4530    -0.0950 ca         1 3XC      -0.159000
     13 C14         -7.0630    -1.8050    -0.3990 ca         1 3XC       0.190000
     14 F14         -8.1460    -2.5350    -0.7010 f          1 3XC      -0.174000
     15 C15         -7.1640    -0.4270    -0.4040 ca         1 3XC      -0.159000
     16 C16         -6.0420     0.3220    -0.0870 ca         1 3XC      -0.050000
     17 N1A          5.2140    -0.7940    -1.1430 nb         1 3XC      -0.752000
     18 C9           2.2470     3.2710     0.9860 c5         1 3XC       0.113800
     19 C2A          4.1420    -0.9330    -0.3590 ca         1 3XC       0.394300
     20 C10          2.3760     2.5570    -0.3740 c5         1 3XC       0.168300
     21 C3A          4.0550    -1.9050     0.6210 ca         1 3XC      -0.216000
     22 C17          3.4290     1.4470    -0.1230 c5         1 3XC      -0.054700
     23 C4A          5.1300    -2.7810     0.8080 ca         1 3XC      -0.000300
     24 C5           3.7000     1.5310     1.3810 c5         1 3XC       0.148800
     25 C5A          6.2390    -2.6310     0.0010 ca         1 3XC      -0.232000
     26 C6A          6.2420    -1.6180    -0.9720 ca         1 3XC       0.596900
     27 N6A          7.3390    -1.4130    -1.7620 nv         1 3XC      -1.050900
     28 C7A          3.0270     0.0490    -0.5870 c3         1 3XC      -0.112700
     29 C8A          5.0600    -3.8650     1.8410 c3         1 3XC      -0.053800
     30 H1           0.0240     3.7150    -0.4860 h1         1 3XC       0.034700
     31 H1A          0.5990     3.5000    -2.1460 h1         1 3XC       0.034700
     32 H2          -1.7520     2.9790    -2.0320 h1         1 3XC       0.038200
     33 H2A         -0.8600     1.5110    -2.4050 h1         1 3XC       0.038200
     34 HN2         -0.9740     1.0550     0.0140 hn         1 3XC       0.435000
     35 H3          -3.5090     1.4930    -1.3590 h1         1 3XC       0.050200
     36 H3A         -2.6480    -0.0310    -1.2960 h1         1 3XC       0.050200
     37 HN1          3.4350     3.1260     2.6530 hn         1 3XC       0.416000
     38 H12         -3.8430    -2.2000     0.4540 ha         1 3XC       0.130500
     39 H13         -5.8300    -3.5340    -0.1000 ha         1 3XC       0.136000
     40 H15         -8.1010     0.0560    -0.6480 ha         1 3XC       0.136000
     41 H16         -6.1220     1.4010    -0.0920 ha         1 3XC       0.130500
     42 H6           1.3570     2.8710     1.4970 h1         1 3XC       0.044200
     43 H2'A         2.1230     4.3520     0.8990 h1         1 3XC       0.044200
     44 H9           2.7590     3.2550    -1.1310 h1         1 3XC       0.044700
     45 H3AA         3.1670    -1.9810     1.2360 ha         1 3XC       0.122000
     46 H4           4.3430     1.7270    -0.6520 hc         1 3XC       0.080700
     47 H5           4.7120     1.2200     1.6450 h1         1 3XC       0.040700
     48 H5'A         3.0000     0.8720     1.9220 h1         1 3XC       0.040700
     49 H5A          7.0980    -3.2830     0.1100 ha         1 3XC       0.119000
     50 HN6A         7.9650    -2.1900    -1.8930 hn         1 3XC       0.465500
     51 HN6B         7.1790    -0.8780    -2.6000 hn         1 3XC       0.465500
     52 H7A          2.7830     0.0650    -1.6510 hc         1 3XC       0.061700
     53 H7AA         2.1330    -0.2820    -0.0550 hc         1 3XC       0.061700
     54 H8A          4.4460    -4.6940     1.4830 hc         1 3XC       0.046367
     55 H8AA         6.0450    -4.2640     2.0760 hc         1 3XC       0.046367
     56 H8AB         4.6040    -3.5050     2.7630 hc         1 3XC       0.046367
@<TRIPOS>BOND
     1     1     2 1   
     2     1     3 1   
     3     1    30 1   
     4     1    31 1   
     5     2    20 1   
     6     3     4 1   
     7     3    32 1   
     8     3    33 1   
     9     4     5 1   
    10     4    34 1   
    11     5     6 1   
    12     5    35 1   
    13     5    36 1   
    14     6     7 1   
    15     6     8 1   
    16     6    10 1   
    17     9    18 1   
    18     9    24 1   
    19     9    37 1   
    20    10    11 ar  
    21    10    16 ar  
    22    11    12 ar  
    23    11    38 1   
    24    12    13 ar  
    25    12    39 1   
    26    13    14 1   
    27    13    15 ar  
    28    15    16 ar  
    29    15    40 1   
    30    16    41 1   
    31    17    19 ar  
    32    17    26 ar  
    33    18    20 1   
    34    18    42 1   
    35    18    43 1   
    36    19    21 ar  
    37    19    28 1   
    38    20    22 1   
    39    20    44 1   
    40    21    23 ar  
    41    21    45 1   
    42    22    24 1   
    43    22    28 1   
    44    22    46 1   
    45    23    25 ar  
    46    23    29 1   
    47    24    47 1   
    48    24    48 1   
    49    25    26 ar  
    50    25    49 1   
    51    26    27 1   
    52    27    50 1   
    53    27    51 1   
    54    28    52 1   
    55    28    53 1   
    56    29    54 1   
    57    29    55 1   
    58    29    56 1   
@<TRIPOS>SUBSTRUCTURE
     1 3XC         1 TEMP              0 ****  ****    0 ROOT
