@<TRIPOS>MOLECULE
3XC
   56    58     1     0     0
SMALL
No Charge or Current Charge


@<TRIPOS>ATOM
      1 C1           0.2830     3.3600    -1.4080 c3         1 3XC       0.157600
      2 O1           1.2120     2.3810    -0.8890 os         1 3XC      -0.469000
      3 C2          -1.0710     2.6520    -1.6690 c3         1 3XC       0.162800
      4 N2          -1.5840     2.0160    -0.4340 n7         1 3XC      -0.854400
      5 C3          -2.7450     1.1030    -0.6180 c3         1 3XC       0.113800
      6 C4          -3.1830     0.3800     0.6920 c3         1 3XC       0.244300
      7 F5          -2.1170    -0.2800     1.2070 f          1 3XC      -0.112000
      8 F6          -3.5240     1.3090     1.6190 f          1 3XC      -0.112000
      9 N1           3.1630     2.8610     1.7970 n7         1 3XC      -0.857400
     10 C11         -4.3510    -0.5780     0.4180 ca         1 3XC      -0.181300
     11 C12         -4.1080    -1.9290     0.0810 ca         1 3XC      -0.050000
     12 C13         -5.1810    -2.7990    -0.1840 ca         1 3XC      -0.159000
     13 C14         -6.4980    -2.3250    -0.1200 ca         1 3XC       0.190000
     14 F14         -7.5270    -3.1630    -0.3760 f          1 3XC      -0.174000
     15 C15         -6.7530    -0.9850     0.2030 ca         1 3XC      -0.159000
     16 C16         -5.6840    -0.1120     0.4690 ca         1 3XC      -0.050000
     17 N1A          5.3510    -0.8980    -1.1270 nb         1 3XC      -0.752000
     18 C9           2.5380     3.6970     0.7300 c5         1 3XC       0.113800
     19 C2A          4.1120    -0.8460    -0.5880 ca         1 3XC       0.394300
     20 C10          2.5610     2.8330    -0.5870 c5         1 3XC       0.168300
     21 C3A          3.6450    -1.8000     0.3370 ca         1 3XC      -0.216000
     22 C17          3.4140     1.5940    -0.1700 c5         1 3XC      -0.054700
     23 C4A          4.4870    -2.8530     0.7300 ca         1 3XC      -0.000300
     24 C5           3.0130     1.4700     1.3210 c5         1 3XC       0.148800
     25 C5A          5.7700    -2.8970     0.1640 ca         1 3XC      -0.232000
     26 C6A          6.1300    -1.8980    -0.7430 ca         1 3XC       0.596900
     27 N6A          7.3190    -1.8450    -1.3470 nv         1 3XC      -1.050900
     28 C7A          3.2270     0.3110    -1.0270 c3         1 3XC      -0.112700
     29 C8A          4.0240    -3.9050     1.7230 c3         1 3XC      -0.053800
     30 H1           0.1290     4.1800    -0.6960 h1         1 3XC       0.034700
     31 H1A          0.6540     3.7870    -2.3490 h1         1 3XC       0.034700
     32 H2          -1.7930     3.3830    -2.0550 h1         1 3XC       0.038200
     33 H2A         -0.9140     1.8960    -2.4510 h1         1 3XC       0.038200
     34 HN2         -0.8000     1.4720    -0.0470 hn         1 3XC       0.435000
     35 H3          -3.6060     1.6620    -1.0090 h1         1 3XC       0.050200
     36 H3A         -2.5020     0.3310    -1.3620 h1         1 3XC       0.050200
     37 HN1          2.6800     2.9950     2.6960 hn         1 3XC       0.416000
     38 H12         -3.0900    -2.3100     0.0200 ha         1 3XC       0.130500
     39 H13         -4.9910    -3.8380    -0.4400 ha         1 3XC       0.136000
     40 H15         -7.7770    -0.6250     0.2460 ha         1 3XC       0.136000
     41 H16         -5.8970     0.9280     0.7110 ha         1 3XC       0.130500
     42 H6           1.5100     3.9610     1.0130 h1         1 3XC       0.044200
     43 H2'A         3.0930     4.6370     0.6030 h1         1 3XC       0.044200
     44 H9           2.9780     3.3640    -1.4530 h1         1 3XC       0.044700
     45 H3AA         2.6410    -1.7170     0.7420 ha         1 3XC       0.122000
     46 H4           4.4780     1.8530    -0.2400 hc         1 3XC       0.080700
     47 H5           3.6630     0.7790     1.8760 h1         1 3XC       0.040700
     48 H5'A         1.9740     1.1240     1.4280 h1         1 3XC       0.040700
     49 H5A          6.4690    -3.6860     0.4220 ha         1 3XC       0.119000
     50 HN6A         7.8520    -2.7050    -1.4050 hn         1 3XC       0.465500
     51 HN6B         7.3720    -1.2200    -2.1430 hn         1 3XC       0.465500
     52 H7A          3.4260     0.5470    -2.0790 hc         1 3XC       0.061700
     53 H7AA         2.1800    -0.0120    -0.9930 hc         1 3XC       0.061700
     54 H8A          3.5050    -4.7240     1.2100 hc         1 3XC       0.046367
     55 H8AA         4.8690    -4.3350     2.2740 hc         1 3XC       0.046367
     56 H8AB         3.3320    -3.4790     2.4600 hc         1 3XC       0.046367
@<TRIPOS>BOND
     1     1     2 1   
     2     1     3 1   
     3     1    30 1   
     4     1    31 1   
     5     2    20 1   
     6     3     4 1   
     7     3    32 1   
     8     3    33 1   
     9     4     5 1   
    10     4    34 1   
    11     5     6 1   
    12     5    35 1   
    13     5    36 1   
    14     6     7 1   
    15     6     8 1   
    16     6    10 1   
    17     9    18 1   
    18     9    24 1   
    19     9    37 1   
    20    10    11 ar  
    21    10    16 ar  
    22    11    12 ar  
    23    11    38 1   
    24    12    13 ar  
    25    12    39 1   
    26    13    14 1   
    27    13    15 ar  
    28    15    16 ar  
    29    15    40 1   
    30    16    41 1   
    31    17    19 ar  
    32    17    26 ar  
    33    18    20 1   
    34    18    42 1   
    35    18    43 1   
    36    19    21 ar  
    37    19    28 1   
    38    20    22 1   
    39    20    44 1   
    40    21    23 ar  
    41    21    45 1   
    42    22    24 1   
    43    22    28 1   
    44    22    46 1   
    45    23    25 ar  
    46    23    29 1   
    47    24    47 1   
    48    24    48 1   
    49    25    26 ar  
    50    25    49 1   
    51    26    27 1   
    52    27    50 1   
    53    27    51 1   
    54    28    52 1   
    55    28    53 1   
    56    29    54 1   
    57    29    55 1   
    58    29    56 1   
@<TRIPOS>SUBSTRUCTURE
     1 3XC         1 TEMP              0 ****  ****    0 ROOT
