@<TRIPOS>MOLECULE
3XD
   56    58     1     0     0
SMALL
No Charge or Current Charge


@<TRIPOS>ATOM
      1 C1           0.2940     3.2440     1.4120 c3         1 3XD       0.157600
      2 O1          -0.6920     2.3200     0.8970 os         1 3XD      -0.463000
      3 C2           1.5970     2.4550     1.6940 c3         1 3XD       0.163800
      4 N2           2.0820     1.7730     0.4730 n7         1 3XD      -0.851400
      5 C3           3.1800     0.7900     0.6810 c3         1 3XD       0.112800
      6 C4           3.5830     0.0240    -0.6150 c3         1 3XD       0.241300
      7 F5           2.4810    -0.5730    -1.1340 f          1 3XD      -0.112500
      8 F6           3.9920     0.9170    -1.5500 f          1 3XD      -0.112500
      9 N1          -2.6430     2.9320    -1.7980 n7         1 3XD      -0.827400
     10 C11          4.6840    -1.0040    -0.3160 ca         1 3XD      -0.162300
     11 C12          6.0450    -0.6280    -0.3580 ca         1 3XD      -0.076500
     12 C13          7.0530    -1.5650    -0.0700 ca         1 3XD      -0.116000
     13 C14          6.7140    -2.8840     0.2700 ca         1 3XD      -0.092000
     14 C15          5.3640    -3.2660     0.3240 ca         1 3XD      -0.116000
     15 C16          4.3540    -2.3320     0.0360 ca         1 3XD      -0.076500
     16 N1A         -4.9880    -0.7300     1.1450 nb         1 3XD      -0.757000
     17 C9          -1.9130     3.7000    -0.7460 c5         1 3XD       0.106800
     18 C2A         -3.7590    -0.7380     0.5820 ca         1 3XD       0.395300
     19 C10         -2.0050     2.8530     0.5780 c5         1 3XD       0.145300
     20 C3A         -3.3620    -1.7050    -0.3620 ca         1 3XD      -0.214000
     21 C17         -2.9310     1.6660     0.1660 c5         1 3XD      -0.090700
     22 C4A         -4.2660    -2.7070    -0.7480 ca         1 3XD       0.001700
     23 C5          -2.5600     1.5300    -1.3320 c5         1 3XD       0.140800
     24 C5A         -5.5380    -2.6900    -0.1560 ca         1 3XD      -0.232000
     25 C6A         -5.8240    -1.6870     0.7720 ca         1 3XD       0.597900
     26 N6A         -7.0000    -1.5670     1.3910 nv         1 3XD      -1.053900
     27 C7A         -2.8040     0.3680     1.0110 c3         1 3XD      -0.104700
     28 C8A         -3.8800    -3.7700    -1.7630 c3         1 3XD      -0.053800
     29 H1           0.5050     4.0430     0.6900 h1         1 3XD       0.031700
     30 H1A         -0.0570     3.7070     2.3430 h1         1 3XD       0.031700
     31 H2           2.3610     3.1430     2.0800 h1         1 3XD       0.036700
     32 H2A          1.3850     1.7200     2.4830 h1         1 3XD       0.036700
     33 HN2          1.2690     1.2750     0.0840 hn         1 3XD       0.436000
     34 H3           4.0710     1.2980     1.0750 h1         1 3XD       0.049700
     35 H3A          2.8800     0.0450     1.4320 h1         1 3XD       0.049700
     36 HN1         -3.6330     3.2090    -1.7710 hn         1 3XD       0.395000
     37 H12          6.3280     0.3920    -0.6120 ha         1 3XD       0.125000
     38 H13          8.0980    -1.2650    -0.1070 ha         1 3XD       0.116500
     39 H14          7.4950    -3.6080     0.4930 ha         1 3XD       0.115000
     40 H15          5.0990    -4.2860     0.5920 ha         1 3XD       0.116500
     41 H16          3.3130    -2.6460     0.0910 ha         1 3XD       0.125000
     42 H6          -0.8660     3.8410    -1.0480 h1         1 3XD       0.057700
     43 H2'A        -2.3500     4.7000    -0.6160 h1         1 3XD       0.057700
     44 H9          -2.3960     3.4180     1.4350 h1         1 3XD       0.041700
     45 H3AA        -2.3630    -1.6720    -0.7870 ha         1 3XD       0.123000
     46 H4          -3.9780     1.9810     0.2580 hc         1 3XD       0.066700
     47 H5          -3.2570     0.8770    -1.8770 h1         1 3XD       0.060700
     48 H5'A        -1.5440     1.1270    -1.4600 h1         1 3XD       0.060700
     49 H5A         -6.2830    -3.4380    -0.4070 ha         1 3XD       0.119000
     50 HN6A        -7.1470    -0.6750     1.8470 hn         1 3XD       0.466500
     51 HN6B        -7.8080    -1.9940     0.9530 hn         1 3XD       0.466500
     52 H7A         -2.9720     0.6070     2.0680 hc         1 3XD       0.061700
     53 H7AA        -1.7780    -0.0150     0.9600 hc         1 3XD       0.061700
     54 H8A         -3.3910    -4.6190    -1.2710 hc         1 3XD       0.046700
     55 H8AA        -4.7580    -4.1520    -2.2960 hc         1 3XD       0.046700
     56 H8AB        -3.1860    -3.3710    -2.5120 hc         1 3XD       0.046700
@<TRIPOS>BOND
     1     1     2 1   
     2     1     3 1   
     3     1    29 1   
     4     1    30 1   
     5     2    19 1   
     6     3     4 1   
     7     3    31 1   
     8     3    32 1   
     9     4     5 1   
    10     4    33 1   
    11     5     6 1   
    12     5    34 1   
    13     5    35 1   
    14     6     7 1   
    15     6     8 1   
    16     6    10 1   
    17     9    17 1   
    18     9    23 1   
    19     9    36 1   
    20    10    11 ar  
    21    10    15 ar  
    22    11    12 ar  
    23    11    37 1   
    24    12    13 ar  
    25    12    38 1   
    26    13    14 ar  
    27    13    39 1   
    28    14    15 ar  
    29    14    40 1   
    30    15    41 1   
    31    16    18 ar  
    32    16    25 ar  
    33    17    19 1   
    34    17    42 1   
    35    17    43 1   
    36    18    20 ar  
    37    18    27 1   
    38    19    21 1   
    39    19    44 1   
    40    20    22 ar  
    41    20    45 1   
    42    21    23 1   
    43    21    27 1   
    44    21    46 1   
    45    22    24 ar  
    46    22    28 1   
    47    23    47 1   
    48    23    48 1   
    49    24    25 ar  
    50    24    49 1   
    51    25    26 1   
    52    26    50 1   
    53    26    51 1   
    54    27    52 1   
    55    27    53 1   
    56    28    54 1   
    57    28    55 1   
    58    28    56 1   
@<TRIPOS>SUBSTRUCTURE
     1 3XD         1 TEMP              0 ****  ****    0 ROOT
