@<TRIPOS>MOLECULE
3XD
   56    58     1     0     0
SMALL
bcc


@<TRIPOS>ATOM
      1 C1           0.2900     2.6120     1.4270 c3         1 3XD       0.134400
      2 O1          -0.6770     1.8220     0.7820 os         1 3XD      -0.416600
      3 C2           1.5110     1.7630     1.6940 c3         1 3XD       0.163800
      4 N2           2.1310     1.3300     0.4550 n7         1 3XD      -0.796200
      5 C3           3.2870     0.4980     0.6840 c3         1 3XD       0.112800
      6 C4           4.0910     0.2730    -0.5810 c3         1 3XD       0.483900
      7 F5           3.2840    -0.2880    -1.5360 f          1 3XD      -0.233800
      8 F6           4.4830     1.4720    -1.1020 f          1 3XD      -0.233800
      9 N1          -2.5370     2.7550    -1.8530 n7         1 3XD      -0.772200
     10 C11          5.2920    -0.6030    -0.3550 ca         1 3XD      -0.162300
     11 C12          6.5130    -0.0380     0.0010 ca         1 3XD      -0.094500
     12 C13          7.6060    -0.8510     0.2630 ca         1 3XD      -0.134000
     13 C14          7.4890    -2.2310     0.1730 ca         1 3XD      -0.110000
     14 C15          6.2710    -2.7970    -0.1780 ca         1 3XD      -0.134000
     15 C16          5.1750    -1.9870    -0.4410 ca         1 3XD      -0.094500
     16 N1A         -5.2670    -0.2660     0.8160 nb         1 3XD      -0.757000
     17 C9          -1.7470     3.3800    -0.7880 c5         1 3XD       0.106800
     18 C2A         -4.0530    -0.7360     0.5170 ca         1 3XD       0.460600
     19 C10         -1.8750     2.5020     0.4830 c5         1 3XD       0.122100
     20 C3A         -3.8560    -1.9700    -0.0740 ca         1 3XD      -0.297300
     21 C17         -2.9540     1.4820     0.1060 c5         1 3XD      -0.090700
     22 C4A         -4.9660    -2.7700    -0.3710 ca         1 3XD       0.001700
     23 C5          -2.8030     1.3910    -1.4120 c5         1 3XD       0.140800
     24 C5A         -6.2180    -2.2830    -0.0590 ca         1 3XD      -0.315300
     25 C6A         -6.3280    -1.0140     0.5370 ca         1 3XD       0.663200
     26 N6A         -7.5500    -0.5200     0.8970 nv         1 3XD      -0.943500
     27 C7A         -2.8910     0.1560     0.8560 c3         1 3XD      -0.104700
     28 C8A         -4.7890    -4.1130    -1.0100 c3         1 3XD      -0.053800
     29 H1           0.5770     3.4800     0.8170 h1         1 3XD       0.031700
     30 H1A         -0.0980     3.0000     2.3800 h1         1 3XD       0.031700
     31 H2           2.2290     2.3700     2.2520 h1         1 3XD       0.036700
     32 H2A          1.2330     0.9250     2.3510 h1         1 3XD       0.036700
     33 HN2          1.4450     0.8190    -0.0870 hn         1 3XD       0.380800
     34 H3           3.9450     0.9930     1.4040 h1         1 3XD       0.049700
     35 H3A          3.0520    -0.4860     1.1160 h1         1 3XD       0.049700
     36 HN1         -3.4220     3.2400    -1.9230 hn         1 3XD       0.339800
     37 H12          6.6240     1.0350     0.0810 ha         1 3XD       0.143000
     38 H13          8.5520    -0.4030     0.5380 ha         1 3XD       0.134500
     39 H14          8.3430    -2.8640     0.3790 ha         1 3XD       0.133000
     40 H15          6.1700    -3.8720    -0.2480 ha         1 3XD       0.134500
     41 H16          4.2330    -2.4450    -0.7100 ha         1 3XD       0.143000
     42 H6          -0.6930     3.4370    -1.0790 h1         1 3XD       0.057700
     43 H2'A        -2.0850     4.4030    -0.6210 h1         1 3XD       0.057700
     44 H9          -2.1830     3.0950     1.3560 h1         1 3XD       0.041700
     45 H3AA        -2.8530    -2.3080    -0.3060 ha         1 3XD       0.141000
     46 H4          -3.9230     1.9450     0.3180 hc         1 3XD       0.066700
     47 H5          -3.6870     0.9930    -1.9130 h1         1 3XD       0.060700
     48 H5'A        -1.9610     0.7380    -1.6710 h1         1 3XD       0.060700
     49 H5A         -7.1090    -2.8640    -0.2660 ha         1 3XD       0.137000
     50 HN6A        -7.5970     0.4740     1.0490 hn         1 3XD       0.411300
     51 HN6B        -8.3570    -0.9000     0.4310 hn         1 3XD       0.411300
     52 H7A         -2.8980     0.3470     1.9330 hc         1 3XD       0.061700
     53 H7AA        -1.9580    -0.3630     0.6320 hc         1 3XD       0.061700
     54 H8A         -4.1590    -4.7560    -0.3930 hc         1 3XD       0.046700
     55 H8AA        -5.7420    -4.6170    -1.1630 hc         1 3XD       0.046700
     56 H8AB        -4.2960    -4.0200    -1.9790 hc         1 3XD       0.046700
@<TRIPOS>BOND
     1     1     2 1   
     2     1     3 1   
     3     1    29 1   
     4     1    30 1   
     5     2    19 1   
     6     3     4 1   
     7     3    31 1   
     8     3    32 1   
     9     4     5 1   
    10     4    33 1   
    11     5     6 1   
    12     5    34 1   
    13     5    35 1   
    14     6     7 1   
    15     6     8 1   
    16     6    10 1   
    17     9    17 1   
    18     9    23 1   
    19     9    36 1   
    20    10    11 ar  
    21    10    15 ar  
    22    11    12 ar  
    23    11    37 1   
    24    12    13 ar  
    25    12    38 1   
    26    13    14 ar  
    27    13    39 1   
    28    14    15 ar  
    29    14    40 1   
    30    15    41 1   
    31    16    18 ar  
    32    16    25 ar  
    33    17    19 1   
    34    17    42 1   
    35    17    43 1   
    36    18    20 ar  
    37    18    27 1   
    38    19    21 1   
    39    19    44 1   
    40    20    22 ar  
    41    20    45 1   
    42    21    23 1   
    43    21    27 1   
    44    21    46 1   
    45    22    24 ar  
    46    22    28 1   
    47    23    47 1   
    48    23    48 1   
    49    24    25 ar  
    50    24    49 1   
    51    25    26 1   
    52    26    50 1   
    53    26    51 1   
    54    27    52 1   
    55    27    53 1   
    56    28    54 1   
    57    28    55 1   
    58    28    56 1   
@<TRIPOS>SUBSTRUCTURE
     1 3XD         1 TEMP              0 ****  ****    0 ROOT
