@<TRIPOS>MOLECULE
3XE
   60    62     1     0     0
SMALL
No Charge or Current Charge


@<TRIPOS>ATOM
      1 C1          -0.2340     3.1090    -1.9350 c3         1 3XE       0.157600
      2 O1           0.7710     2.3310    -1.2460 os         1 3XE      -0.466000
      3 C2          -1.5250     2.2580    -2.0340 c3         1 3XE       0.163800
      4 N2          -1.9930     1.8420    -0.6930 n7         1 3XE      -0.851400
      5 C3          -3.0820     0.8270    -0.6820 c3         1 3XE       0.113800
      6 C4          -3.4720     0.3480     0.7490 c3         1 3XE       0.240300
      7 F5          -2.3630    -0.1170     1.3750 f          1 3XE      -0.112500
      8 F6          -3.8860     1.4150     1.4770 f          1 3XE      -0.112500
      9 N1           2.7050     3.5170     1.2360 n7         1 3XE      -0.869400
     10 C11         -4.5640    -0.7290     0.6800 ca         1 3XE      -0.162300
     11 C12         -4.2220    -2.0980     0.6110 ca         1 3XE      -0.076500
     12 C13         -5.2250    -3.0810     0.5320 ca         1 3XE      -0.116000
     13 C14         -6.5780    -2.7080     0.5160 ca         1 3XE      -0.093000
     14 C15         -6.9290    -1.3500     0.5740 ca         1 3XE      -0.116000
     15 C16         -5.9290    -0.3650     0.6520 ca         1 3XE      -0.076500
     16 N1A          3.8040    -0.9260     0.8740 n2         1 3XE      -0.691900
     17 C9           1.9930     4.0510     0.0410 c5         1 3XE       0.119800
     18 C2A          3.9830    -0.6200    -0.5660 c6         1 3XE       0.152500
     19 C10          2.0810     2.9360    -1.0680 c5         1 3XE       0.159300
     20 C3A          3.9420    -1.8770    -1.4780 c6         1 3XE      -0.104400
     21 C17          3.0370     1.8760    -0.4310 c5         1 3XE      -0.045700
     22 C4A          4.8580    -2.9820    -0.9120 c6         1 3XE      -0.057700
     23 C5           2.6710     2.0450     1.0670 c5         1 3XE       0.161800
     24 C5A          4.3760    -3.3350     0.5160 c6         1 3XE      -0.165700
     25 C6A          3.9890    -2.1050     1.3270 c2         1 3XE       0.615200
     26 N6A          3.8220    -2.3470     2.6520 nv         1 3XE      -1.024200
     27 C7A          2.9330     0.4390    -1.0230 c3         1 3XE      -0.047400
     28 C8A          4.9120    -4.2290    -1.8330 c3         1 3XE      -0.086100
     29 H1          -0.4550     4.0400    -1.3970 h1         1 3XE       0.031200
     30 H1A          0.1050     3.3700    -2.9460 h1         1 3XE       0.031200
     31 H2          -2.3010     2.8380    -2.5510 h1         1 3XE       0.035700
     32 H2A         -1.3040     1.3770    -2.6520 h1         1 3XE       0.035700
     33 HN2         -1.1730     1.4440    -0.2160 hn         1 3XE       0.436000
     34 H3          -3.9800     1.2320    -1.1680 h1         1 3XE       0.049200
     35 H3A         -2.7770    -0.0560    -1.2610 h1         1 3XE       0.049200
     36 HN1          2.2250     3.7950     2.1020 hn         1 3XE       0.414000
     37 H12         -3.1790    -2.4080     0.6150 ha         1 3XE       0.125000
     38 H13         -4.9510    -4.1320     0.4820 ha         1 3XE       0.116500
     39 H14         -7.3530    -3.4690     0.4540 ha         1 3XE       0.115000
     40 H15         -7.9770    -1.0590     0.5560 ha         1 3XE       0.116500
     41 H16         -6.2210     0.6830     0.6890 ha         1 3XE       0.125000
     42 H6           0.9480     4.2740     0.2970 h1         1 3XE       0.042200
     43 H2'A         2.4550     4.9900    -0.2950 h1         1 3XE       0.042200
     44 H2AA         4.9760    -0.1580    -0.6780 h1         1 3XE       0.051700
     45 H9           2.4490     3.3100    -2.0330 h1         1 3XE       0.037700
     46 H3AA         2.9110    -2.2510    -1.5570 hc         1 3XE       0.047700
     47 H3AB         4.2580    -1.6070    -2.4960 hc         1 3XE       0.047700
     48 H4           4.0750     2.1920    -0.5900 hc         1 3XE       0.059700
     49 H4A          5.8830    -2.5900    -0.8530 hc         1 3XE       0.050700
     50 H5           3.3870     1.5510     1.7370 h1         1 3XE       0.050700
     51 H5'A         1.6690     1.6420     1.2790 h1         1 3XE       0.050700
     52 H5A          3.4980    -3.9930     0.4560 hc         1 3XE       0.056200
     53 H5AA         5.1580    -3.9050     1.0350 hc         1 3XE       0.056200
     54 HN6A         4.3790    -3.1130     3.0090 hn         1 3XE       0.458500
     55 HN6B         3.8400    -1.5030     3.2110 hn         1 3XE       0.458500
     56 H7A          3.0040     0.5340    -2.1140 hc         1 3XE       0.047200
     57 H7AA         1.9290     0.0400    -0.8350 hc         1 3XE       0.047200
     58 H8A          5.2890    -3.9690    -2.8290 hc         1 3XE       0.034700
     59 H8AA         5.5750    -4.9980    -1.4180 hc         1 3XE       0.034700
     60 H8AB         3.9190    -4.6780    -1.9590 hc         1 3XE       0.034700
@<TRIPOS>BOND
     1     1     2 1   
     2     1     3 1   
     3     1    29 1   
     4     1    30 1   
     5     2    19 1   
     6     3     4 1   
     7     3    31 1   
     8     3    32 1   
     9     4     5 1   
    10     4    33 1   
    11     5     6 1   
    12     5    34 1   
    13     5    35 1   
    14     6     7 1   
    15     6     8 1   
    16     6    10 1   
    17     9    17 1   
    18     9    23 1   
    19     9    36 1   
    20    10    11 ar  
    21    10    15 ar  
    22    11    12 ar  
    23    11    37 1   
    24    12    13 ar  
    25    12    38 1   
    26    13    14 ar  
    27    13    39 1   
    28    14    15 ar  
    29    14    40 1   
    30    15    41 1   
    31    16    18 1   
    32    16    25 2   
    33    17    19 1   
    34    17    42 1   
    35    17    43 1   
    36    18    20 1   
    37    18    27 1   
    38    18    44 1   
    39    19    21 1   
    40    19    45 1   
    41    20    22 1   
    42    20    46 1   
    43    20    47 1   
    44    21    23 1   
    45    21    27 1   
    46    21    48 1   
    47    22    24 1   
    48    22    28 1   
    49    22    49 1   
    50    23    50 1   
    51    23    51 1   
    52    24    25 1   
    53    24    52 1   
    54    24    53 1   
    55    25    26 1   
    56    26    54 1   
    57    26    55 1   
    58    27    56 1   
    59    27    57 1   
    60    28    58 1   
    61    28    59 1   
    62    28    60 1   
@<TRIPOS>SUBSTRUCTURE
     1 3XE         1 TEMP              0 ****  ****    0 ROOT
