@<TRIPOS>MOLECULE
3XE
   60    62     1     0     0
SMALL
abcg2


@<TRIPOS>ATOM
      1 C1          -0.2870     2.7260    -1.6100 c3         1 3XE       0.157600
      2 O1           0.7300     2.0000    -0.9670 os         1 3XE      -0.466000
      3 C2          -1.4830     1.8210    -1.7980 c3         1 3XE       0.163800
      4 N2          -2.0400     1.4120    -0.5220 n7         1 3XE      -0.851400
      5 C3          -3.1800     0.5420    -0.6780 c3         1 3XE       0.113800
      6 C4          -3.9280     0.3380     0.6260 c3         1 3XE       0.240300
      7 F5          -3.0680    -0.1650     1.5670 f          1 3XE      -0.112500
      8 F6          -4.3350     1.5430     1.1190 f          1 3XE      -0.112500
      9 N1           2.9630     3.4860     1.1950 n7         1 3XE      -0.869400
     10 C11         -5.1100    -0.5800     0.4780 ca         1 3XE      -0.162300
     11 C12         -4.9480    -1.9550     0.6110 ca         1 3XE      -0.076500
     12 C13         -6.0290    -2.8050     0.4230 ca         1 3XE      -0.116000
     13 C14         -7.2770    -2.2880     0.1020 ca         1 3XE      -0.093000
     14 C15         -7.4390    -0.9160    -0.0350 ca         1 3XE      -0.116000
     15 C16         -6.3600    -0.0630     0.1510 ca         1 3XE      -0.076500
     16 N1A          4.5540    -0.6700     0.7090 n2         1 3XE      -0.691900
     17 C9           1.8350     3.7720     0.3210 c5         1 3XE       0.119800
     18 C2A          4.1240    -0.5570    -0.6680 c6         1 3XE       0.152500
     19 C10          1.9310     2.7170    -0.8050 c5         1 3XE       0.159300
     20 C3A          3.8860    -1.8930    -1.3680 c6         1 3XE      -0.104400
     21 C17          3.0630     1.7670    -0.3520 c5         1 3XE      -0.045700
     22 C4A          5.0110    -2.8750    -1.0790 c6         1 3XE      -0.057700
     23 C5           3.1650     2.0480     1.1440 c5         1 3XE       0.161800
     24 C5A          5.0750    -3.0810     0.4270 c6         1 3XE      -0.165700
     25 C6A          4.9500    -1.7820     1.1840 c2         1 3XE       0.615200
     26 N6A          5.2570    -1.8760     2.5180 nv         1 3XE      -1.024200
     27 C7A          2.8710     0.3150    -0.7670 c3         1 3XE      -0.047400
     28 C8A          4.8320    -4.1940    -1.8140 c3         1 3XE      -0.086100
     29 H1          -0.5840     3.6080    -1.0260 h1         1 3XE       0.031200
     30 H1A          0.0530     3.0860    -2.5920 h1         1 3XE       0.031200
     31 H2          -2.2430     2.3780    -2.3520 h1         1 3XE       0.035700
     32 H2A         -1.1940     0.9690    -2.4340 h1         1 3XE       0.035700
     33 HN2         -1.3200     0.9370     0.0070 hn         1 3XE       0.436000
     34 H3          -3.8800     0.9950    -1.3860 h1         1 3XE       0.049200
     35 H3A         -2.9350    -0.4500    -1.0860 h1         1 3XE       0.049200
     36 HN1          2.7920     3.8140     2.1360 hn         1 3XE       0.414000
     37 H12         -3.9830    -2.3760     0.8600 ha         1 3XE       0.125000
     38 H13         -5.8940    -3.8730     0.5290 ha         1 3XE       0.116500
     39 H14         -8.1180    -2.9520    -0.0440 ha         1 3XE       0.115000
     40 H15         -8.4070    -0.5060    -0.2880 ha         1 3XE       0.116500
     41 H16         -6.5040     1.0030     0.0360 ha         1 3XE       0.125000
     42 H6           0.8650     3.6550     0.8250 h1         1 3XE       0.042200
     43 H2'A         1.8820     4.7960    -0.0550 h1         1 3XE       0.042200
     44 H2AA         4.9220    -0.0330    -1.2160 h1         1 3XE       0.051700
     45 H9           2.1960     3.1850    -1.7630 h1         1 3XE       0.037700
     46 H3AA         2.9360    -2.3260    -1.0270 hc         1 3XE       0.047700
     47 H3AB         3.7860    -1.7250    -2.4440 hc         1 3XE       0.047700
     48 H4           3.9830     2.1380    -0.8190 hc         1 3XE       0.059700
     49 H4A          5.9540    -2.4210    -1.4050 hc         1 3XE       0.050700
     50 H5           4.1300     1.7650     1.5600 h1         1 3XE       0.050700
     51 H5'A         2.3940     1.4720     1.6830 h1         1 3XE       0.050700
     52 H5A          4.2640    -3.7460     0.7480 hc         1 3XE       0.056200
     53 H5AA         6.0060    -3.5790     0.7150 hc         1 3XE       0.056200
     54 HN6A         5.9260    -2.5780     2.7850 hn         1 3XE       0.458500
     55 HN6B         5.3830    -0.9980     2.9970 hn         1 3XE       0.458500
     56 H7A          2.5400     0.2840    -1.8100 hc         1 3XE       0.047200
     57 H7AA         2.0730    -0.1490    -0.1800 hc         1 3XE       0.047200
     58 H8A          4.8130    -4.0430    -2.8950 hc         1 3XE       0.034700
     59 H8AA         5.6430    -4.8910    -1.5930 hc         1 3XE       0.034700
     60 H8AB         3.8940    -4.6750    -1.5290 hc         1 3XE       0.034700
@<TRIPOS>BOND
     1     1     2 1   
     2     1     3 1   
     3     1    29 1   
     4     1    30 1   
     5     2    19 1   
     6     3     4 1   
     7     3    31 1   
     8     3    32 1   
     9     4     5 1   
    10     4    33 1   
    11     5     6 1   
    12     5    34 1   
    13     5    35 1   
    14     6     7 1   
    15     6     8 1   
    16     6    10 1   
    17     9    17 1   
    18     9    23 1   
    19     9    36 1   
    20    10    11 ar  
    21    10    15 ar  
    22    11    12 ar  
    23    11    37 1   
    24    12    13 ar  
    25    12    38 1   
    26    13    14 ar  
    27    13    39 1   
    28    14    15 ar  
    29    14    40 1   
    30    15    41 1   
    31    16    18 1   
    32    16    25 2   
    33    17    19 1   
    34    17    42 1   
    35    17    43 1   
    36    18    20 1   
    37    18    27 1   
    38    18    44 1   
    39    19    21 1   
    40    19    45 1   
    41    20    22 1   
    42    20    46 1   
    43    20    47 1   
    44    21    23 1   
    45    21    27 1   
    46    21    48 1   
    47    22    24 1   
    48    22    28 1   
    49    22    49 1   
    50    23    50 1   
    51    23    51 1   
    52    24    25 1   
    53    24    52 1   
    54    24    53 1   
    55    25    26 1   
    56    26    54 1   
    57    26    55 1   
    58    27    56 1   
    59    27    57 1   
    60    28    58 1   
    61    28    59 1   
    62    28    60 1   
@<TRIPOS>SUBSTRUCTURE
     1 3XE         1 TEMP              0 ****  ****    0 ROOT
