@<TRIPOS>MOLECULE
3XF
   61    63     1     0     0
SMALL
bcc


@<TRIPOS>ATOM
      1 O1          -1.0580    -2.4860     0.0020 os         1 3XF      -0.421600
      2 C2          -0.0900    -3.4570     0.3290 c3         1 3XF       0.135400
      3 C3           1.2100    -3.0860    -0.3520 c3         1 3XF       0.163800
      4 N4           1.6910    -1.8100     0.1380 n7         1 3XF      -0.804200
      5 C5           2.9340    -1.3990    -0.4700 c3         1 3XF       0.121800
      6 C6           3.4890    -0.1610     0.2050 c3         1 3XF       0.431600
      7 F7           2.5250     0.8170     0.2000 f          1 3XF      -0.243300
      8 F8           3.7200    -0.4230     1.5300 f          1 3XF      -0.243300
      9 N1          -4.4610    -2.9750     0.5510 n7         1 3XF      -0.808200
     10 N11          5.7810    -0.6290    -0.4310 n7         1 3XF      -0.795200
     11 C12          4.7530     0.4010    -0.4320 c6         1 3XF       0.113500
     12 C13          5.2180     1.7200     0.1930 c6         1 3XF      -0.105400
     13 C14          6.4830     2.2020    -0.5160 c6         1 3XF      -0.075400
     14 C15          7.5560     1.1190    -0.5250 c6         1 3XF      -0.115400
     15 C16          6.9970    -0.1790    -1.0980 c6         1 3XF       0.150800
     16 N1A         -3.9400     1.2760    -1.2440 nb         1 3XF      -0.752000
     17 C9          -3.1550    -3.6130     0.6010 c5         1 3XF       0.116800
     18 C2A         -3.1350     1.1900    -0.1840 ca         1 3XF       0.461600
     19 C10         -2.1690    -2.4520     0.8620 c5         1 3XF       0.144100
     20 C3A         -3.1090     2.1510     0.8130 ca         1 3XF      -0.296300
     21 C4          -3.0100    -1.1780     0.6140 c5         1 3XF      -0.053700
     22 C4A         -3.9650     3.2520     0.7200 ca         1 3XF      -0.000300
     23 C11         -4.2440    -1.7030    -0.1150 c5         1 3XF       0.153800
     24 C5A         -4.8020     3.3340    -0.3750 ca         1 3XF      -0.315300
     25 C6A         -4.7570     2.3190    -1.3450 ca         1 3XF       0.659200
     26 N6A         -5.5320     2.3920    -2.4690 nv         1 3XF      -0.940500
     27 C7A         -2.2730    -0.0390    -0.0890 c3         1 3XF      -0.115700
     28 C8A         -3.9550     4.3180     1.7730 c3         1 3XF      -0.053800
     29 H2           0.0660    -3.4930     1.4150 h1         1 3XF       0.033200
     30 H2A         -0.4020    -4.4600     0.0080 h1         1 3XF       0.033200
     31 H3           1.9470    -3.8600    -0.1190 h1         1 3XF       0.037700
     32 H3A          1.0720    -3.1070    -1.4450 h1         1 3XF       0.037700
     33 HN4          0.9790    -1.1140    -0.0410 hn         1 3XF       0.376800
     34 H5           3.6700    -2.1980    -0.3670 h1         1 3XF       0.057200
     35 H5A          2.8550    -1.1920    -1.5480 h1         1 3XF       0.057200
     36 HN1         -5.1350    -3.5500     0.0640 hn         1 3XF       0.357800
     37 HN11         6.0160    -0.8640     0.5280 hn         1 3XF       0.359800
     38 H12          4.5010     0.5970    -1.4820 h1         1 3XF       0.074700
     39 H13          4.4400     2.4820     0.1200 hc         1 3XF       0.059200
     40 H13A         5.4290     1.5730     1.2560 hc         1 3XF       0.059200
     41 H14          6.2340     2.4740    -1.5480 hc         1 3XF       0.044200
     42 H14A         6.8540     3.1100    -0.0360 hc         1 3XF       0.044200
     43 H15          8.4250     1.4410    -1.1050 hc         1 3XF       0.046200
     44 H15A         7.9080     0.9400     0.4970 hc         1 3XF       0.046200
     45 H16          7.7370    -0.9800    -1.0360 h1         1 3XF       0.053700
     46 H16A         6.7710    -0.0430    -2.1610 h1         1 3XF       0.053700
     47 H6          -3.1200    -4.3810     1.3750 h1         1 3XF       0.040200
     48 H2'A        -2.8760    -4.0880    -0.3510 h1         1 3XF       0.040200
     49 H9          -1.8160    -2.4670     1.9010 h1         1 3XF       0.046700
     50 H3AA        -2.4370     2.0450     1.6560 ha         1 3XF       0.141000
     51 H4          -3.3360    -0.8160     1.5940 hc         1 3XF       0.063700
     52 H10         -4.0320    -1.8020    -1.1920 h1         1 3XF       0.047200
     53 H5'A        -5.1090    -1.0470    -0.0110 h1         1 3XF       0.047200
     54 H5AA        -5.4870     4.1660    -0.4900 ha         1 3XF       0.136000
     55 HN6A        -5.6750     1.5220    -2.9560 hn         1 3XF       0.408800
     56 HN6B        -6.3550     2.9700    -2.4250 hn         1 3XF       0.408800
     57 H7A         -1.9750    -0.3430    -1.0930 hc         1 3XF       0.066200
     58 H7AA        -1.3620     0.2020     0.4630 hc         1 3XF       0.066200
     59 H8A         -3.0510     4.9250     1.6960 hc         1 3XF       0.046033
     60 H8AA        -4.8110     4.9840     1.6820 hc         1 3XF       0.046033
     61 H8AB        -3.9630     3.8840     2.7730 hc         1 3XF       0.046033
@<TRIPOS>BOND
     1     1     2 1   
     2     1    19 1   
     3     2     3 1   
     4     2    29 1   
     5     2    30 1   
     6     3     4 1   
     7     3    31 1   
     8     3    32 1   
     9     4     5 1   
    10     4    33 1   
    11     5     6 1   
    12     5    34 1   
    13     5    35 1   
    14     6     7 1   
    15     6     8 1   
    16     6    11 1   
    17     9    17 1   
    18     9    23 1   
    19     9    36 1   
    20    10    11 1   
    21    10    15 1   
    22    10    37 1   
    23    11    12 1   
    24    11    38 1   
    25    12    13 1   
    26    12    39 1   
    27    12    40 1   
    28    13    14 1   
    29    13    41 1   
    30    13    42 1   
    31    14    15 1   
    32    14    43 1   
    33    14    44 1   
    34    15    45 1   
    35    15    46 1   
    36    16    18 ar  
    37    16    25 ar  
    38    17    19 1   
    39    17    47 1   
    40    17    48 1   
    41    18    20 ar  
    42    18    27 1   
    43    19    21 1   
    44    19    49 1   
    45    20    22 ar  
    46    20    50 1   
    47    21    23 1   
    48    21    27 1   
    49    21    51 1   
    50    22    24 ar  
    51    22    28 1   
    52    23    52 1   
    53    23    53 1   
    54    24    25 ar  
    55    24    54 1   
    56    25    26 1   
    57    26    55 1   
    58    26    56 1   
    59    27    57 1   
    60    27    58 1   
    61    28    59 1   
    62    28    60 1   
    63    28    61 1   
@<TRIPOS>SUBSTRUCTURE
     1 3XF         1 TEMP              0 ****  ****    0 ROOT
