@<TRIPOS>MOLECULE
3XF
   61    63     1     0     0
SMALL
No Charge or Current Charge


@<TRIPOS>ATOM
      1 O1          -1.0540    -2.5120     0.5960 os         1 3XF      -0.468000
      2 C2          -0.1800    -3.6000     0.9720 c3         1 3XF       0.158600
      3 C3           1.1900    -3.3850     0.2780 c3         1 3XF       0.163800
      4 N4           1.7700    -2.0730     0.6430 n7         1 3XF      -0.859400
      5 C5           2.9600    -1.6550    -0.1490 c3         1 3XF       0.121800
      6 C6           3.4510    -0.2130     0.1940 c3         1 3XF       0.189000
      7 F7           2.3960     0.6340     0.0830 f          1 3XF      -0.122000
      8 F8           3.8330    -0.1770     1.4960 f          1 3XF      -0.122000
      9 N1          -4.2600    -2.8950    -0.3350 n7         1 3XF      -0.863400
     10 N11          5.8120    -0.6310    -0.6400 n7         1 3XF      -0.850400
     11 C12          4.6250     0.2720    -0.7370 c6         1 3XF       0.113500
     12 C13          5.0560     1.7420    -0.4480 c6         1 3XF      -0.105400
     13 C14          6.2090     2.1840    -1.3820 c6         1 3XF      -0.075400
     14 C15          7.3870     1.1850    -1.2990 c6         1 3XF      -0.115400
     15 C16          6.9070    -0.2600    -1.5670 c6         1 3XF       0.150800
     16 N1A         -2.8450     1.8660    -0.8440 nb         1 3XF      -0.752000
     17 C9          -3.2750    -3.5980     0.5360 c5         1 3XF       0.116800
     18 C2A         -3.0050     1.3830     0.4080 ca         1 3XF       0.396300
     19 C10         -2.3790    -2.4810     1.1930 c5         1 3XF       0.167300
     20 C3A         -3.8550     1.9890     1.3540 ca         1 3XF      -0.213000
     21 C4          -3.0910    -1.1640     0.7510 c5         1 3XF      -0.053700
     22 C4A         -4.5740     3.1420     0.9990 ca         1 3XF      -0.000300
     23 C11         -3.6300    -1.5900    -0.6370 c5         1 3XF       0.153800
     24 C5A         -4.3980     3.6360    -0.3020 ca         1 3XF      -0.232000
     25 C6A         -3.5280     2.9570    -1.1570 ca         1 3XF       0.593900
     26 N6A         -3.2910     3.3310    -2.4160 nv         1 3XF      -1.050900
     27 C7A         -2.2240     0.1260     0.7630 c3         1 3XF      -0.115700
     28 C8A         -5.5010     3.8290     1.9880 c3         1 3XF      -0.053800
     29 H2          -0.0370    -3.6230     2.0600 h1         1 3XF       0.033200
     30 H2A         -0.5920    -4.5680     0.6600 h1         1 3XF       0.033200
     31 H3           1.8700    -4.2000     0.5620 h1         1 3XF       0.037700
     32 H3A          1.0340    -3.4470    -0.8080 h1         1 3XF       0.037700
     33 HN4          1.0240    -1.3800     0.4940 hn         1 3XF       0.432000
     34 H5           3.7880    -2.3570     0.0160 h1         1 3XF       0.057200
     35 H5A          2.7270    -1.6850    -1.2230 h1         1 3XF       0.057200
     36 HN1         -4.4300    -3.4270    -1.1990 hn         1 3XF       0.413000
     37 HN11         6.1730    -0.5860     0.3210 hn         1 3XF       0.415000
     38 H12          4.2440     0.2310    -1.7700 h1         1 3XF       0.074700
     39 H13          4.2030     2.4200    -0.5800 hc         1 3XF       0.059200
     40 H13A         5.3740     1.8430     0.5990 hc         1 3XF       0.059200
     41 H14          5.8450     2.2410    -2.4180 hc         1 3XF       0.044200
     42 H14A         6.5490     3.1930    -1.1120 hc         1 3XF       0.044200
     43 H15          8.1640     1.4600    -2.0260 hc         1 3XF       0.046200
     44 H15A         7.8540     1.2420    -0.3060 hc         1 3XF       0.046200
     45 H16          7.7490    -0.9580    -1.4460 h1         1 3XF       0.053700
     46 H16A         6.5550    -0.3440    -2.6070 h1         1 3XF       0.053700
     47 H6          -3.7940    -4.1970     1.2980 h1         1 3XF       0.040200
     48 H2'A        -2.6690    -4.2900    -0.0650 h1         1 3XF       0.040200
     49 H9          -2.2970    -2.5720     2.2850 h1         1 3XF       0.046700
     50 H3AA        -3.9510     1.5630     2.3490 ha         1 3XF       0.123000
     51 H4          -3.9340    -0.9720     1.4260 hc         1 3XF       0.063700
     52 H10         -2.8120    -1.7030    -1.3650 h1         1 3XF       0.047200
     53 H5'A        -4.3540    -0.8720    -1.0450 h1         1 3XF       0.047200
     54 H5AA        -4.9220     4.5250    -0.6390 ha         1 3XF       0.118000
     55 HN6A        -2.8330     2.6310    -2.9860 hn         1 3XF       0.464000
     56 HN6B        -3.9840     3.9110    -2.8750 hn         1 3XF       0.464000
     57 H7A         -1.3760     0.0130     0.0770 hc         1 3XF       0.066200
     58 H7AA        -1.7810     0.2540     1.7570 hc         1 3XF       0.066200
     59 H8A         -4.9520     4.5570     2.5960 hc         1 3XF       0.046033
     60 H8AA        -6.3090     4.3620     1.4740 hc         1 3XF       0.046033
     61 H8AB        -5.9650     3.1040     2.6680 hc         1 3XF       0.046033
@<TRIPOS>BOND
     1     1     2 1   
     2     1    19 1   
     3     2     3 1   
     4     2    29 1   
     5     2    30 1   
     6     3     4 1   
     7     3    31 1   
     8     3    32 1   
     9     4     5 1   
    10     4    33 1   
    11     5     6 1   
    12     5    34 1   
    13     5    35 1   
    14     6     7 1   
    15     6     8 1   
    16     6    11 1   
    17     9    17 1   
    18     9    23 1   
    19     9    36 1   
    20    10    11 1   
    21    10    15 1   
    22    10    37 1   
    23    11    12 1   
    24    11    38 1   
    25    12    13 1   
    26    12    39 1   
    27    12    40 1   
    28    13    14 1   
    29    13    41 1   
    30    13    42 1   
    31    14    15 1   
    32    14    43 1   
    33    14    44 1   
    34    15    45 1   
    35    15    46 1   
    36    16    18 ar  
    37    16    25 ar  
    38    17    19 1   
    39    17    47 1   
    40    17    48 1   
    41    18    20 ar  
    42    18    27 1   
    43    19    21 1   
    44    19    49 1   
    45    20    22 ar  
    46    20    50 1   
    47    21    23 1   
    48    21    27 1   
    49    21    51 1   
    50    22    24 ar  
    51    22    28 1   
    52    23    52 1   
    53    23    53 1   
    54    24    25 ar  
    55    24    54 1   
    56    25    26 1   
    57    26    55 1   
    58    26    56 1   
    59    27    57 1   
    60    27    58 1   
    61    28    59 1   
    62    28    60 1   
    63    28    61 1   
@<TRIPOS>SUBSTRUCTURE
     1 3XF         1 TEMP              0 ****  ****    0 ROOT
