@<TRIPOS>MOLECULE
3XG
   54    57     1     0     0
SMALL
No Charge or Current Charge


@<TRIPOS>ATOM
      1 C4           4.4110    -0.6520    -0.7130 ca         1 3XG      -0.045000
      2 C5           5.7590    -0.5820    -1.1210 ca         1 3XG      -0.125000
      3 C6           6.4200     0.6650    -1.1790 ca         1 3XG      -0.086000
      4 C8           2.0220     2.0050     0.3380 cc         1 3XG      -0.219600
      5 C13          0.7010     2.3960     0.7900 c          1 3XG       0.599200
      6 C17         -4.0110     1.9420     0.7420 c3         1 3XG       0.174800
      7 C1           5.7400     1.8490    -0.8290 ca         1 3XG      -0.092000
      8 C2           4.3980     1.7630    -0.4250 ca         1 3XG      -0.148000
      9 C3           3.7550     0.5400    -0.3700 ca         1 3XG      -0.072800
     10 C16         -2.5720     1.6970     0.2440 c3         1 3XG      -0.098400
     11 C11          0.2720     0.0210     0.6420 cc         1 3XG       0.505800
     12 C9           2.3920     0.7140     0.0720 cd         1 3XG       0.229400
     13 O29         -1.7640    -4.2550     0.7250 o          1 3XG      -0.479000
     14 C25         -0.5990    -4.1480     0.3640 c          1 3XG       0.606100
     15 O26          0.1850    -5.1990    -0.0350 os         1 3XG      -0.440100
     16 C27         -0.3950    -6.5150    -0.0290 c3         1 3XG       0.167600
     17 C28          0.6850    -7.4950    -0.5140 c3         1 3XG      -0.098100
     18 C24          0.1740    -2.8300     0.2960 c3         1 3XG      -0.038400
     19 S23         -0.8340    -1.3530     0.8190 ss         1 3XG      -0.162200
     20 N10          1.4890    -0.3280     0.2260 nd         1 3XG      -0.645300
     21 N12         -0.1700     1.3140     0.9310 n          1 3XG      -0.307300
     22 O14          0.3840     3.5560     1.0180 o          1 3XG      -0.528000
     23 S7           3.3630     3.1450     0.0570 ss         1 3XG       0.153400
     24 N18         -4.9930     2.1450    -0.3440 n3         1 3XG      -0.714600
     25 C22         -6.3570     2.4860     0.1080 c5         1 3XG       0.156800
     26 C21         -7.1130     2.5630    -1.2430 c5         1 3XG      -0.079400
     27 C20         -6.3920     1.5000    -2.1300 c5         1 3XG      -0.079400
     28 C19         -5.2280     0.9890    -1.2370 c5         1 3XG       0.156800
     29 H1           3.8920    -1.6070    -0.6650 ha         1 3XG       0.128000
     30 H2           6.2900    -1.4920    -1.3920 ha         1 3XG       0.117000
     31 H3           7.4600     0.7120    -1.4950 ha         1 3XG       0.115000
     32 H4          -1.5820     2.5080     1.9890 h1         1 3XG       0.073700
     33 H5          -1.8720     0.7860     2.0870 h1         1 3XG       0.073700
     34 H6          -4.3170     1.0930     1.3690 h1         1 3XG       0.030700
     35 H7          -4.0000     2.8320     1.3860 h1         1 3XG       0.030700
     36 H8           6.2460     2.8110    -0.8730 ha         1 3XG       0.125000
     37 H9          -2.2750     2.5230    -0.4130 hc         1 3XG       0.064200
     38 H10         -2.5430     0.7810    -0.3560 hc         1 3XG       0.064200
     39 H11         -0.7200    -6.7970     0.9820 h1         1 3XG       0.051700
     40 H12         -1.2630    -6.5640    -0.7010 h1         1 3XG       0.051700
     41 H13          0.2900    -8.5180    -0.5270 hc         1 3XG       0.049367
     42 H14          1.0120    -7.2380    -1.5280 hc         1 3XG       0.049367
     43 H15          1.5550    -7.4710     0.1530 hc         1 3XG       0.049367
     44 H16          1.0530    -2.9280     0.9430 h1         1 3XG       0.112200
     45 H17          0.5160    -2.7000    -0.7370 h1         1 3XG       0.112200
     46 H19         -6.7730     1.7000     0.7540 h1         1 3XG       0.035700
     47 H20         -6.3940     3.4380     0.6560 h1         1 3XG       0.035700
     48 H21         -8.1830     2.3570    -1.1240 hc         1 3XG       0.046700
     49 H22         -7.0230     3.5630    -1.6830 hc         1 3XG       0.046700
     50 H23         -7.0580     0.6820    -2.4270 hc         1 3XG       0.046700
     51 H24         -6.0100     1.9560    -3.0510 hc         1 3XG       0.046700
     52 H25         -4.3450     0.7230    -1.8340 h1         1 3XG       0.035700
     53 H26         -5.5330     0.1010    -0.6640 h1         1 3XG       0.035700
     54 C15         -1.5570     1.5820     1.4010 c3         1 3XG       0.081000
@<TRIPOS>BOND
     1     1     2 ar  
     2     1     9 ar  
     3     1    29 1   
     4     2     3 ar  
     5     2    30 1   
     6     3     7 ar  
     7     3    31 1   
     8     4     5 1   
     9     4    12 2   
    10     4    23 1   
    11     5    21 1   
    12     5    22 2   
    13     6    10 1   
    14     6    24 1   
    15     6    34 1   
    16     6    35 1   
    17     7     8 ar  
    18     7    36 1   
    19     8     9 ar  
    20     8    23 1   
    21     9    12 1   
    22    10    37 1   
    23    10    38 1   
    24    10    54 1   
    25    11    19 1   
    26    11    20 2   
    27    11    21 1   
    28    12    20 1   
    29    13    14 2   
    30    14    15 1   
    31    14    18 1   
    32    15    16 1   
    33    16    17 1   
    34    16    39 1   
    35    16    40 1   
    36    17    41 1   
    37    17    42 1   
    38    17    43 1   
    39    18    19 1   
    40    18    44 1   
    41    18    45 1   
    42    21    54 1   
    43    24    25 1   
    44    24    28 1   
    45    25    26 1   
    46    25    46 1   
    47    25    47 1   
    48    26    27 1   
    49    26    48 1   
    50    26    49 1   
    51    27    28 1   
    52    27    50 1   
    53    27    51 1   
    54    28    52 1   
    55    28    53 1   
    56    32    54 1   
    57    33    54 1   
@<TRIPOS>SUBSTRUCTURE
     1 3XG         1 TEMP              0 ****  ****    0 ROOT
