@<TRIPOS>MOLECULE
3XG
   54    57     1     0     0
SMALL
abcg2


@<TRIPOS>ATOM
      1 C4           4.4150    -0.5310    -0.8040 ca         1 3XG      -0.045000
      2 C5           5.7170    -0.3650    -1.2300 ca         1 3XG      -0.125000
      3 C6           6.2960     0.9090    -1.2710 ca         1 3XG      -0.086000
      4 C8           1.9540     1.9540     0.3440 cc         1 3XG      -0.219600
      5 C13          0.6400     2.2560     0.8100 c          1 3XG       0.599200
      6 C17         -3.9260     1.6760     0.7010 c3         1 3XG       0.174800
      7 C1           5.5880     2.0330    -0.8870 ca         1 3XG      -0.092000
      8 C2           4.2750     1.8650    -0.4560 ca         1 3XG      -0.148000
      9 C3           3.6840     0.5920    -0.4140 ca         1 3XG      -0.072800
     10 C16         -2.4870     1.5800     0.2140 c3         1 3XG      -0.098400
     11 C11          0.2970    -0.1330     0.6100 cc         1 3XG       0.505800
     12 C9           2.3270     0.6680     0.0530 cd         1 3XG       0.229400
     13 O29         -1.7970    -4.0890     0.6890 o          1 3XG      -0.479000
     14 C25         -0.6310    -4.0810     0.3840 c          1 3XG       0.606100
     15 O26          0.0820    -5.1460     0.0890 os         1 3XG      -0.440100
     16 C27         -0.5720    -6.4310     0.1200 c3         1 3XG       0.167600
     17 C28          0.4440    -7.4750    -0.2670 c3         1 3XG      -0.098100
     18 C24          0.2050    -2.8310     0.2850 c3         1 3XG      -0.038400
     19 S23         -0.8530    -1.4500     0.7760 ss         1 3XG      -0.162200
     20 N10          1.4900    -0.3860     0.1870 nd         1 3XG      -0.645300
     21 N12         -0.1630     1.1130     0.9420 n          1 3XG      -0.307300
     22 O14          0.2210     3.3680     1.0750 o          1 3XG      -0.528000
     23 S7           3.1950     3.1270     0.0700 ss         1 3XG       0.153400
     24 N18         -4.8320     2.1170    -0.3320 n3         1 3XG      -0.714600
     25 C22         -6.1860     2.3330     0.1450 c5         1 3XG       0.156800
     26 C21         -6.9900     2.5270    -1.1380 c5         1 3XG      -0.079400
     27 C20         -6.2250     1.6910    -2.1860 c5         1 3XG      -0.079400
     28 C19         -4.9790     1.1920    -1.4450 c5         1 3XG       0.156800
     29 H1           3.9600    -1.5120    -0.7670 ha         1 3XG       0.128000
     30 H2           6.2980    -1.2260    -1.5340 ha         1 3XG       0.117000
     31 H3           7.3180     1.0200    -1.6090 ha         1 3XG       0.115000
     32 H4          -1.5440     2.1690     2.0670 h1         1 3XG       0.073700
     33 H5          -1.8600     0.4600     1.9690 h1         1 3XG       0.073700
     34 H6          -4.2330     0.7000     1.1190 h1         1 3XG       0.030700
     35 H7          -3.9750     2.3960     1.5240 h1         1 3XG       0.030700
     36 H8           6.0430     3.0140    -0.9250 ha         1 3XG       0.125000
     37 H9          -2.2080     2.5130    -0.2800 hc         1 3XG       0.064200
     38 H10         -2.3840     0.7770    -0.5200 hc         1 3XG       0.064200
     39 H11         -0.9610    -6.6140     1.1230 h1         1 3XG       0.051700
     40 H12         -1.4130    -6.4240    -0.5750 h1         1 3XG       0.051700
     41 H13         -0.0360    -8.4530    -0.2620 hc         1 3XG       0.049367
     42 H14          0.8380    -7.3020    -1.2680 hc         1 3XG       0.049367
     43 H15          1.2760    -7.5080     0.4360 hc         1 3XG       0.049367
     44 H16          1.0750    -2.8960     0.9380 h1         1 3XG       0.112200
     45 H17          0.5660    -2.6950    -0.7360 h1         1 3XG       0.112200
     46 H19         -6.5660     1.4590     0.7010 h1         1 3XG       0.035700
     47 H20         -6.2310     3.1920     0.8180 h1         1 3XG       0.035700
     48 H21         -8.0250     2.2080    -1.0180 hc         1 3XG       0.046700
     49 H22         -7.0060     3.5790    -1.4240 hc         1 3XG       0.046700
     50 H23         -6.8150     0.8560    -2.5620 hc         1 3XG       0.046700
     51 H24         -5.9510     2.3000    -3.0470 hc         1 3XG       0.046700
     52 H25         -4.0890     1.1840    -2.0770 h1         1 3XG       0.035700
     53 H26         -5.1350     0.1600    -1.0860 h1         1 3XG       0.035700
     54 C15         -1.5440     1.3240     1.3830 c3         1 3XG       0.081000
@<TRIPOS>BOND
     1     1     2 ar  
     2     1     9 ar  
     3     1    29 1   
     4     2     3 ar  
     5     2    30 1   
     6     3     7 ar  
     7     3    31 1   
     8     4     5 1   
     9     4    12 2   
    10     4    23 1   
    11     5    21 1   
    12     5    22 2   
    13     6    10 1   
    14     6    24 1   
    15     6    34 1   
    16     6    35 1   
    17     7     8 ar  
    18     7    36 1   
    19     8     9 ar  
    20     8    23 1   
    21     9    12 1   
    22    10    37 1   
    23    10    38 1   
    24    10    54 1   
    25    11    19 1   
    26    11    20 2   
    27    11    21 1   
    28    12    20 1   
    29    13    14 2   
    30    14    15 1   
    31    14    18 1   
    32    15    16 1   
    33    16    17 1   
    34    16    39 1   
    35    16    40 1   
    36    17    41 1   
    37    17    42 1   
    38    17    43 1   
    39    18    19 1   
    40    18    44 1   
    41    18    45 1   
    42    21    54 1   
    43    24    25 1   
    44    24    28 1   
    45    25    26 1   
    46    25    46 1   
    47    25    47 1   
    48    26    27 1   
    49    26    48 1   
    50    26    49 1   
    51    27    28 1   
    52    27    50 1   
    53    27    51 1   
    54    28    52 1   
    55    28    53 1   
    56    32    54 1   
    57    33    54 1   
@<TRIPOS>SUBSTRUCTURE
     1 3XG         1 TEMP              0 ****  ****    0 ROOT
