@<TRIPOS>MOLECULE
3XH
   22    22     1     0     0
SMALL
No Charge or Current Charge


@<TRIPOS>ATOM
      1 O11          3.5830    -1.5310    -0.2050 o          1 3XH      -0.729000
      2 C10          3.8940    -0.3730     0.0450 c          1 3XH       0.713000
      3 O12          5.0090    -0.0430     0.4220 o          1 3XH      -0.729000
      4 C9           2.8090     0.7340    -0.0760 c3         1 3XH      -0.060000
      5 N8           1.4340     0.1840    -0.0240 ns         1 3XH      -0.454900
      6 C7           0.2780     0.9360     0.0040 c          1 3XH       0.588700
      7 O14          0.3230     2.1610    -0.0040 o          1 3XH      -0.654100
      8 C6          -1.0350     0.1730     0.0460 ca         1 3XH      -0.091600
      9 C5          -1.0900    -1.2450     0.0580 ca         1 3XH      -0.117000
     10 C4          -2.3270    -1.9130     0.0980 ca         1 3XH      -0.091000
     11 C3          -3.5250    -1.1820     0.1260 ca         1 3XH      -0.206000
     12 C2          -3.4860     0.2180     0.1140 ca         1 3XH       0.112100
     13 O13         -4.6470     0.9300     0.1410 oh         1 3XH      -0.539100
     14 C1          -2.2540     0.8900     0.0750 ca         1 3XH      -0.103000
     15 H9           2.9420     1.4480     0.7470 h1         1 3XH       0.037700
     16 H9A          2.9530     1.2570    -1.0290 h1         1 3XH       0.037700
     17 HN8          1.3300    -0.8240    -0.0240 hn         1 3XH       0.343500
     18 H5          -0.1850    -1.8470     0.0380 ha         1 3XH       0.134000
     19 H4          -2.3540    -3.0010     0.1070 ha         1 3XH       0.105000
     20 H3          -4.4750    -1.7100     0.1560 ha         1 3XH       0.099000
     21 HO13        -5.3960     0.2960     0.1670 ho         1 3XH       0.452000
     22 H1          -2.2490     1.9780     0.0670 ha         1 3XH       0.150000
@<TRIPOS>BOND
     1     1     2 1   
     2     2     3 1   
     3     2     4 1   
     4     4     5 1   
     5     4    15 1   
     6     4    16 1   
     7     5     6 1   
     8     5    17 1   
     9     6     7 2   
    10     6     8 1   
    11     8     9 ar  
    12     8    14 ar  
    13     9    10 ar  
    14     9    18 1   
    15    10    11 ar  
    16    10    19 1   
    17    11    12 ar  
    18    11    20 1   
    19    12    13 1   
    20    12    14 ar  
    21    13    21 1   
    22    14    22 1   
@<TRIPOS>SUBSTRUCTURE
     1 3XH         1 TEMP              0 ****  ****    0 ROOT
