@<TRIPOS>MOLECULE
3XH
   22    22     1     0     0
SMALL
abcg2


@<TRIPOS>ATOM
      1 O11          3.4120    -1.5270     0.0300 o          1 3XH      -0.729000
      2 C10          3.8060    -0.3440     0.0030 c          1 3XH       0.713000
      3 O12          4.9780     0.0670    -0.0170 o          1 3XH      -0.729000
      4 C9           2.7210     0.7520    -0.0090 c3         1 3XH      -0.060000
      5 N8           1.4080     0.1630     0.0170 ns         1 3XH      -0.454900
      6 C7           0.2790     0.8720     0.0090 c          1 3XH       0.588700
      7 O14          0.2750     2.0990    -0.0230 o          1 3XH      -0.654100
      8 C6          -1.0110     0.1010     0.0430 ca         1 3XH      -0.091600
      9 C5          -1.0770    -1.2920     0.0600 ca         1 3XH      -0.117000
     10 C4          -2.3130    -1.9190     0.0940 ca         1 3XH      -0.091000
     11 C3          -3.4880    -1.1830     0.1110 ca         1 3XH      -0.206000
     12 C2          -3.4250     0.2080     0.0920 ca         1 3XH       0.112100
     13 O13         -4.5230     0.9880     0.1070 oh         1 3XH      -0.539100
     14 C1          -2.1870     0.8420     0.0580 ca         1 3XH      -0.103000
     15 H9           2.8700     1.4120     0.8520 h1         1 3XH       0.037700
     16 H9A          2.8510     1.3760    -0.8980 h1         1 3XH       0.037700
     17 HN8          1.4210    -0.8470     0.0430 hn         1 3XH       0.343500
     18 H5          -0.1920    -1.9120     0.0470 ha         1 3XH       0.134000
     19 H4          -2.3650    -2.9990     0.1070 ha         1 3XH       0.105000
     20 H3          -4.4450    -1.6910     0.1390 ha         1 3XH       0.099000
     21 HO13        -5.3200     0.4470     0.1360 ho         1 3XH       0.452000
     22 H1          -2.1430     1.9230     0.0450 ha         1 3XH       0.150000
@<TRIPOS>BOND
     1     1     2 1   
     2     2     3 1   
     3     2     4 1   
     4     4     5 1   
     5     4    15 1   
     6     4    16 1   
     7     5     6 1   
     8     5    17 1   
     9     6     7 2   
    10     6     8 1   
    11     8     9 ar  
    12     8    14 ar  
    13     9    10 ar  
    14     9    18 1   
    15    10    11 ar  
    16    10    19 1   
    17    11    12 ar  
    18    11    20 1   
    19    12    13 1   
    20    12    14 ar  
    21    13    21 1   
    22    14    22 1   
@<TRIPOS>SUBSTRUCTURE
     1 3XH         1 TEMP              0 ****  ****    0 ROOT
