@<TRIPOS>MOLECULE
3XI
   79    80     1     0     0
SMALL
bcc


@<TRIPOS>ATOM
      1 C22        -18.3320    12.7460   -18.5210 c6         1 3XI      -0.075400
      2 O25        -20.6130    13.7180   -22.8110 o          1 3XI      -0.612100
      3 C21        -17.7680    12.1990   -19.8420 c6         1 3XI      -0.074400
      4 C20        -18.6400    12.5790   -21.0470 c6         1 3XI      -0.063400
      5 C19        -19.2740    13.9480   -20.8270 c6         1 3XI      -0.137700
      6 C24        -20.2720    13.8890   -19.6480 c6         1 3XI      -0.063400
      7 C23        -19.8490    12.8590   -18.5930 c6         1 3XI      -0.074400
      8 C18        -19.9930    14.4570   -22.0580 c          1 3XI       0.671100
      9 N17        -19.9450    15.7920   -22.2300 ns         1 3XI      -0.563900
     10 C13        -20.6270    16.4840   -23.2970 c3         1 3XI       0.044700
     11 C12        -19.6990    16.5670   -24.5080 c          1 3XI       0.650100
     12 O26        -18.6000    17.0980   -24.4270 o          1 3XI      -0.613100
     13 C14        -21.0600    17.8870   -22.8500 c3         1 3XI      -0.068700
     14 C15        -21.9970    17.8020   -21.6500 c3         1 3XI      -0.092600
     15 C16        -21.7350    18.6380   -23.9930 c3         1 3XI      -0.092600
     16 N11        -20.1600    16.0210   -25.6420 ns         1 3XI      -0.546900
     17 C06        -19.4110    16.0800   -26.8730 c3         1 3XI       0.042700
     18 C05        -19.4290    17.5130   -27.4050 c          1 3XI       0.655100
     19 O27        -20.4660    18.1510   -27.4660 o          1 3XI      -0.606100
     20 C07        -19.9990    15.1510   -27.9400 c3         1 3XI      -0.082400
     21 C08        -19.6000    13.6770   -27.8230 c3         1 3XI      -0.061700
     22 C10        -20.0400    13.0220   -26.5180 c3         1 3XI      -0.090600
     23 C09        -20.1610    12.9100   -29.0170 c3         1 3XI      -0.090600
     24 C31        -18.6860    22.5310   -26.0130 c6         1 3XI      -0.093400
     25 C03        -18.0270    19.3010   -28.3580 c3         1 3XI      -0.016300
     26 C30        -18.9060    21.0350   -25.8730 c6         1 3XI      -0.076400
     27 C34        -16.4600    20.8860   -25.2120 c          1 3XI       0.710500
     28 C28        -17.1060    20.1420   -27.4800 c3         1 3XI      -0.074400
     29 C02        -17.5360    19.1720   -29.7860 c          1 3XI       0.561900
     30 C29        -17.5900    20.2750   -26.0280 c6         1 3XI      -0.142700
     31 C32        -17.7700    23.0080   -24.9060 c6         1 3XI       0.116000
     32 N04        -18.2390    17.9720   -27.8370 ns         1 3XI      -0.562900
     33 N33        -16.6050    22.1510   -24.7830 ns         1 3XI      -0.576900
     34 H12        -18.0300    12.1060   -17.6900 hc         1 3XI       0.039200
     35 H13        -17.9110    13.7340   -18.3110 hc         1 3XI       0.039200
     36 H10        -17.6900    11.1110   -19.7900 hc         1 3XI       0.041450
     37 H8         -19.4280    11.8360   -21.1920 hc         1 3XI       0.049200
     38 H31        -18.4770    14.6550   -20.5690 hc         1 3XI       0.056700
     39 H14        -20.3470    14.8810   -19.1970 hc         1 3XI       0.049200
     40 H15        -21.2690    13.6380   -20.0170 hc         1 3XI       0.049200
     41 H32        -20.2660    13.1340   -17.6220 hc         1 3XI       0.041450
     42 H33        -20.2690    11.8800   -18.8390 hc         1 3XI       0.041450
     43 H11        -16.7520    12.5720   -19.9880 hc         1 3XI       0.041450
     44 H9         -18.0380    12.5700   -21.9580 hc         1 3XI       0.049200
     45 H43        -19.3650    16.3380   -21.6130 hn         1 3XI       0.325500
     46 H4         -21.5240    15.9130   -23.5530 h1         1 3XI       0.080700
     47 H27        -20.1600    18.4390   -22.5560 hc         1 3XI       0.063700
     48 H5         -21.5360    17.3120   -20.7930 hc         1 3XI       0.040367
     49 H6         -22.2980    18.8020   -21.3340 hc         1 3XI       0.040367
     50 H7         -22.9040    17.2490   -21.9070 hc         1 3XI       0.040367
     51 H28        -22.0480    19.6270   -23.6580 hc         1 3XI       0.040367
     52 H29        -21.0800    18.7800   -24.8520 hc         1 3XI       0.040367
     53 H30        -22.6250    18.1050   -24.3340 hc         1 3XI       0.040367
     54 H42        -21.0890    15.6300   -25.6610 hn         1 3XI       0.333500
     55 H20        -18.3800    15.7720   -26.6720 h1         1 3XI       0.076700
     56 H21        -19.6580    15.5080   -28.9160 hc         1 3XI       0.054700
     57 H22        -21.0900    15.2490   -27.9490 hc         1 3XI       0.054700
     58 H23        -18.5060    13.6300   -27.8740 hc         1 3XI       0.044700
     59 H1         -19.5560    13.4610   -25.6470 hc         1 3XI       0.037867
     60 H2         -21.1200    13.1080   -26.3800 hc         1 3XI       0.037867
     61 H3         -19.7940    11.9590   -26.5260 hc         1 3XI       0.037867
     62 H24        -19.8460    11.8660   -28.9950 hc         1 3XI       0.037867
     63 H25        -21.2530    12.9260   -29.0120 hc         1 3XI       0.037867
     64 H26        -19.8260    13.3390   -29.9630 hc         1 3XI       0.037867
     65 H37        -18.2540    22.7650   -26.9890 hc         1 3XI       0.051700
     66 H38        -19.6300    23.0730   -25.9470 hc         1 3XI       0.051700
     67 H19        -19.0130    19.7700   -28.4380 h1         1 3XI       0.098700
     68 H35        -19.6440    20.6770   -26.5910 hc         1 3XI       0.055200
     69 H36        -19.3260    20.8220   -24.8850 hc         1 3XI       0.055200
     70 H16        -16.1120    19.6890   -27.4810 hc         1 3XI       0.067200
     71 H17        -16.9970    21.1280   -27.9370 hc         1 3XI       0.067200
     72 H18        -18.0900    18.4170   -30.3740 h4         1 3XI      -0.005800
     73 H34        -17.7180    19.2660   -25.6250 hc         1 3XI       0.098700
     74 H39        -17.4270    24.0260   -25.0970 h1         1 3XI       0.037200
     75 H40        -18.3170    23.0260   -23.9580 h1         1 3XI       0.037200
     76 H41        -17.4190    17.4070   -27.6700 hn         1 3XI       0.324500
     77 H44        -15.8420    22.5060   -24.2240 hn         1 3XI       0.312500
     78 O01        -16.6410    19.8130   -30.2680 o          1 3XI      -0.500100
     79 O35        -15.4400    20.2450   -24.9850 o          1 3XI      -0.649500
@<TRIPOS>BOND
     1     1     3 1   
     2     1     7 1   
     3     1    34 1   
     4     1    35 1   
     5     2     8 2   
     6     3     4 1   
     7     3    36 1   
     8     3    43 1   
     9     4     5 1   
    10     4    37 1   
    11     4    44 1   
    12     5     6 1   
    13     5     8 1   
    14     5    38 1   
    15     6     7 1   
    16     6    39 1   
    17     6    40 1   
    18     7    41 1   
    19     7    42 1   
    20     8     9 1   
    21     9    10 1   
    22     9    45 1   
    23    10    11 1   
    24    10    13 1   
    25    10    46 1   
    26    11    12 2   
    27    11    16 1   
    28    13    14 1   
    29    13    15 1   
    30    13    47 1   
    31    14    48 1   
    32    14    49 1   
    33    14    50 1   
    34    15    51 1   
    35    15    52 1   
    36    15    53 1   
    37    16    17 1   
    38    16    54 1   
    39    17    18 1   
    40    17    20 1   
    41    17    55 1   
    42    18    19 2   
    43    18    32 1   
    44    20    21 1   
    45    20    56 1   
    46    20    57 1   
    47    21    22 1   
    48    21    23 1   
    49    21    58 1   
    50    22    59 1   
    51    22    60 1   
    52    22    61 1   
    53    23    62 1   
    54    23    63 1   
    55    23    64 1   
    56    24    26 1   
    57    24    31 1   
    58    24    65 1   
    59    24    66 1   
    60    25    28 1   
    61    25    29 1   
    62    25    32 1   
    63    25    67 1   
    64    26    30 1   
    65    26    68 1   
    66    26    69 1   
    67    27    30 1   
    68    27    33 1   
    69    27    79 2   
    70    28    30 1   
    71    28    70 1   
    72    28    71 1   
    73    29    72 1   
    74    29    78 2   
    75    30    73 1   
    76    31    33 1   
    77    31    74 1   
    78    31    75 1   
    79    32    76 1   
    80    33    77 1   
@<TRIPOS>SUBSTRUCTURE
     1 3XI         1 TEMP              0 ****  ****    0 ROOT
