@<TRIPOS>MOLECULE
3XI
   79    80     1     0     0
SMALL
No Charge or Current Charge


@<TRIPOS>ATOM
      1 C22        -18.7020    11.8140   -18.3720 c6         1 3XI      -0.075400
      2 O25        -21.7930    14.1900   -21.6330 o          1 3XI      -0.612100
      3 C21        -18.8200    11.1910   -19.7940 c6         1 3XI      -0.074400
      4 C20        -19.7820    11.9690   -20.7390 c6         1 3XI      -0.063400
      5 C19        -19.8370    13.4790   -20.3890 c6         1 3XI      -0.137700
      6 C24        -20.2640    13.7740   -18.9190 c6         1 3XI      -0.063400
      7 C23        -19.9850    12.5790   -17.9650 c6         1 3XI      -0.074400
      8 C18        -20.5940    14.3270   -21.4330 c          1 3XI       0.604100
      9 N17        -19.8340    15.2410   -22.1280 ns         1 3XI      -0.496900
     10 C13        -20.3450    16.1670   -23.1650 c3         1 3XI       0.044700
     11 C12        -19.3540    16.1670   -24.3650 c          1 3XI       0.583100
     12 O26        -18.1400    16.0710   -24.2240 o          1 3XI      -0.613100
     13 C14        -20.5630    17.5980   -22.5730 c3         1 3XI      -0.068700
     14 C15        -21.5650    17.6060   -21.3900 c3         1 3XI      -0.092600
     15 C16        -20.9900    18.6370   -23.6410 c3         1 3XI      -0.092600
     16 N11        -19.9390    16.2690   -25.6100 ns         1 3XI      -0.479900
     17 C06        -19.2020    16.3670   -26.8890 c3         1 3XI       0.042700
     18 C05        -19.4490    17.7740   -27.5040 c          1 3XI       0.588100
     19 O27        -20.4710    18.4190   -27.3030 o          1 3XI      -0.606100
     20 C07        -19.6210    15.2490   -27.8850 c3         1 3XI      -0.082400
     21 C08        -19.0300    13.8310   -27.6290 c3         1 3XI      -0.061700
     22 C10        -19.5310    13.1690   -26.3230 c3         1 3XI      -0.090600
     23 C09        -19.3050    12.9040   -28.8370 c3         1 3XI      -0.090600
     24 C31        -18.9620    22.9760   -26.5160 c6         1 3XI      -0.093400
     25 C03        -18.3610    19.6290   -28.8560 c3         1 3XI      -0.016300
     26 C30        -19.1130    21.4610   -26.2780 c6         1 3XI      -0.076400
     27 C34        -16.5650    21.4270   -25.8200 c          1 3XI       0.568000
     28 C28        -17.4070    20.5340   -28.0220 c3         1 3XI      -0.074400
     29 C02        -17.9720    19.5530   -30.3560 c          1 3XI       0.561900
     30 C29        -17.7630    20.7200   -26.5020 c6         1 3XI      -0.142700
     31 C32        -17.9100    23.5780   -25.5630 c6         1 3XI       0.116000
     32 N04        -18.4230    18.2590   -28.2910 ns         1 3XI      -0.495900
     33 N33        -16.7240    22.7250   -25.3860 ns         1 3XI      -0.509900
     34 H12        -18.4810    11.0270   -17.6380 hc         1 3XI       0.039200
     35 H13        -17.8490    12.5060   -18.3440 hc         1 3XI       0.039200
     36 H10        -19.1660    10.1510   -19.7150 hc         1 3XI       0.041450
     37 H8         -20.7940    11.5460   -20.6610 hc         1 3XI       0.049200
     38 H31        -18.7940    13.8180   -20.4560 hc         1 3XI       0.056700
     39 H14        -19.7380    14.6710   -18.5610 hc         1 3XI       0.049200
     40 H15        -21.3350    14.0150   -18.8740 hc         1 3XI       0.049200
     41 H32        -19.9000    12.9390   -16.9310 hc         1 3XI       0.041450
     42 H33        -20.8380    11.8860   -17.9810 hc         1 3XI       0.041450
     43 H11        -17.8190    11.1410   -20.2440 hc         1 3XI       0.041450
     44 H9         -19.4700    11.8280   -21.7830 hc         1 3XI       0.049200
     45 H43        -18.8420    15.2630   -21.9190 hn         1 3XI       0.325500
     46 H4         -21.3050    15.7880   -23.5400 h1         1 3XI       0.080700
     47 H27        -19.5970    17.9360   -22.1750 hc         1 3XI       0.063700
     48 H5         -21.2020    16.9940   -20.5560 hc         1 3XI       0.040367
     49 H6         -21.7080    18.6240   -21.0090 hc         1 3XI       0.040367
     50 H7         -22.5420    17.2190   -21.7040 hc         1 3XI       0.040367
     51 H28        -21.1730    19.6150   -23.1790 hc         1 3XI       0.040367
     52 H29        -20.2060    18.7790   -24.3940 hc         1 3XI       0.040367
     53 H30        -21.9090    18.3230   -24.1490 hc         1 3XI       0.040367
     54 H42        -20.9470    16.3760   -25.6350 hn         1 3XI       0.333500
     55 H20        -18.1230    16.2870   -26.7020 h1         1 3XI       0.076700
     56 H21        -19.2980    15.5620   -28.8860 hc         1 3XI       0.054700
     57 H22        -20.7160    15.1920   -27.9310 hc         1 3XI       0.054700
     58 H23        -17.9400    13.9330   -27.5480 hc         1 3XI       0.044700
     59 H1         -19.1320    13.6790   -25.4410 hc         1 3XI       0.037867
     60 H2         -20.6260    13.1810   -26.2710 hc         1 3XI       0.037867
     61 H3         -19.1980    12.1260   -26.2650 hc         1 3XI       0.037867
     62 H24        -18.8390    11.9220   -28.6880 hc         1 3XI       0.037867
     63 H25        -20.3830    12.7540   -28.9770 hc         1 3XI       0.037867
     64 H26        -18.8950    13.3320   -29.7590 hc         1 3XI       0.037867
     65 H37        -18.6700    23.1670   -27.5570 hc         1 3XI       0.051700
     66 H38        -19.9260    23.4830   -26.3700 hc         1 3XI       0.051700
     67 H19        -19.3670    20.0670   -28.8470 h1         1 3XI       0.098700
     68 H35        -19.9060    21.0550   -26.9180 hc         1 3XI       0.055200
     69 H36        -19.4480    21.2930   -25.2450 hc         1 3XI       0.055200
     70 H16        -16.3990    20.1060   -28.0990 hc         1 3XI       0.067200
     71 H17        -17.3410    21.5150   -28.5090 hc         1 3XI       0.067200
     72 H18        -18.7810    19.1990   -31.0320 h4         1 3XI      -0.005800
     73 H34        -17.8020    19.7080   -26.0780 hc         1 3XI       0.098700
     74 H39        -17.5930    24.5660   -25.9280 h1         1 3XI       0.037200
     75 H40        -18.3640    23.7210   -24.5720 h1         1 3XI       0.037200
     76 H41        -17.6160    17.6530   -28.4070 hn         1 3XI       0.324500
     77 H44        -15.9200    23.1260   -24.9180 hn         1 3XI       0.312500
     78 O01        -16.8680    19.8520   -30.8020 o          1 3XI      -0.500100
     79 O35        -15.5180    20.8410   -25.5980 o          1 3XI      -0.574000
@<TRIPOS>BOND
     1     1     3 1   
     2     1     7 1   
     3     1    34 1   
     4     1    35 1   
     5     2     8 2   
     6     3     4 1   
     7     3    36 1   
     8     3    43 1   
     9     4     5 1   
    10     4    37 1   
    11     4    44 1   
    12     5     6 1   
    13     5     8 1   
    14     5    38 1   
    15     6     7 1   
    16     6    39 1   
    17     6    40 1   
    18     7    41 1   
    19     7    42 1   
    20     8     9 1   
    21     9    10 1   
    22     9    45 1   
    23    10    11 1   
    24    10    13 1   
    25    10    46 1   
    26    11    12 2   
    27    11    16 1   
    28    13    14 1   
    29    13    15 1   
    30    13    47 1   
    31    14    48 1   
    32    14    49 1   
    33    14    50 1   
    34    15    51 1   
    35    15    52 1   
    36    15    53 1   
    37    16    17 1   
    38    16    54 1   
    39    17    18 1   
    40    17    20 1   
    41    17    55 1   
    42    18    19 2   
    43    18    32 1   
    44    20    21 1   
    45    20    56 1   
    46    20    57 1   
    47    21    22 1   
    48    21    23 1   
    49    21    58 1   
    50    22    59 1   
    51    22    60 1   
    52    22    61 1   
    53    23    62 1   
    54    23    63 1   
    55    23    64 1   
    56    24    26 1   
    57    24    31 1   
    58    24    65 1   
    59    24    66 1   
    60    25    28 1   
    61    25    29 1   
    62    25    32 1   
    63    25    67 1   
    64    26    30 1   
    65    26    68 1   
    66    26    69 1   
    67    27    30 1   
    68    27    33 1   
    69    27    79 2   
    70    28    30 1   
    71    28    70 1   
    72    28    71 1   
    73    29    72 1   
    74    29    78 2   
    75    30    73 1   
    76    31    33 1   
    77    31    74 1   
    78    31    75 1   
    79    32    76 1   
    80    33    77 1   
@<TRIPOS>SUBSTRUCTURE
     1 3XI         1 TEMP              0 ****  ****    0 ROOT
