@<TRIPOS>MOLECULE
3XJ
   50    52     1     0     0
SMALL
abcg2


@<TRIPOS>ATOM
      1 O3          -9.6800    -0.3260    -0.5000 o          1 3XJ      -0.712000
      2 C4          -0.3450     1.4490    -0.1550 ca         1 3XJ      -0.107000
      3 C5           1.0350     1.5160    -0.0660 ca         1 3XJ       0.113000
      4 O4           4.0610    -1.4560     0.6350 os         1 3XJ      -0.447000
      5 C7          -4.7480     0.4720    -0.0660 ca         1 3XJ      -0.196600
      6 C8          -5.1470    -0.3200     1.0100 ca         1 3XJ      -0.100000
      7 C9          -6.4740    -0.6960     1.1480 ca         1 3XJ      -0.100000
      8 O5           6.4940    -0.8310    -1.9770 oh         1 3XJ      -0.722000
      9 C10         -7.4330    -0.3020     0.2200 ca         1 3XJ      -0.103600
     10 O6           7.2940     1.0180     0.0040 oh         1 3XJ      -0.656000
     11 C11         -7.0280     0.4940    -0.8500 ca         1 3XJ      -0.100000
     12 C12         -5.7080     0.8860    -0.9880 ca         1 3XJ      -0.100000
     13 C13         -8.8910    -0.7240     0.3760 c          1 3XJ       0.711600
     14 O7           6.1520    -0.2520     2.2050 oh         1 3XJ      -0.693000
     15 C14          3.9600    -0.2080     1.2260 c6         1 3XJ       0.360300
     16 C15          4.6320    -1.4890    -0.6660 c6         1 3XJ       0.172300
     17 O2          -9.1590    -1.4290     1.3660 o          1 3XJ      -0.712000
     18 O1          -3.0970     1.9700    -0.8630 o          1 3XJ      -0.603100
     19 N           -2.3910     0.1330     0.2730 ns         1 3XJ      -0.145000
     20 C3          -1.0040     0.3070     0.2960 ca         1 3XJ      -0.016000
     21 C2          -0.2430    -0.7380     0.8160 ca         1 3XJ      -0.146000
     22 C1           1.1360    -0.6610     0.8920 ca         1 3XJ      -0.136000
     23 C            1.8040     0.4800     0.4580 ca         1 3XJ       0.096100
     24 O            3.1380     0.6710     0.4930 os         1 3XJ      -0.374100
     25 C18          5.3250     0.4800     1.3410 c6         1 3XJ       0.124300
     26 C17          5.9780     0.5220    -0.0390 c6         1 3XJ       0.140300
     27 C16          6.0320    -0.8760    -0.6490 c6         1 3XJ       0.145300
     28 C19          4.6600    -2.9380    -1.1030 c3         1 3XJ       0.169600
     29 H8          -4.4410    -0.6280     1.7720 ha         1 3XJ       0.097500
     30 H9          -6.7700    -1.3010     1.9950 ha         1 3XJ       0.133500
     31 H14          7.2630     1.9790     0.0150 ho         1 3XJ       0.448000
     32 H10         -7.7590     0.8130    -1.5810 ha         1 3XJ       0.133500
     33 H11         -5.4180     1.5090    -1.8240 ha         1 3XJ       0.097500
     34 H15          5.8470    -0.1210     3.1080 ho         1 3XJ       0.503000
     35 H            3.5310    -0.3790     2.2210 h2         1 3XJ       0.077700
     36 H18          3.3630    -4.2840    -1.5940 ho         1 3XJ       0.500000
     37 H12          4.0080    -0.9230    -1.3720 h1         1 3XJ       0.077700
     38 H7          -2.7030    -0.7470     0.6550 hn         1 3XJ       0.160000
     39 H5          -0.7310    -1.6390     1.1660 ha         1 3XJ       0.116000
     40 H4           1.6760    -1.5120     1.2790 ha         1 3XJ       0.134000
     41 H3           5.1700     1.5040     1.7050 h1         1 3XJ       0.053700
     42 H2           5.3500     1.1470    -0.6880 h1         1 3XJ       0.068700
     43 H1           6.6850    -1.5080    -0.0280 h1         1 3XJ       0.065700
     44 H16          5.2680    -3.5150    -0.3920 h1         1 3XJ       0.033200
     45 H17          5.1640    -2.9910    -2.0740 h1         1 3XJ       0.033200
     46 CL           1.8360     2.9420    -0.6270 cl         1 3XJ      -0.206000
     47 H13          7.3410    -0.3720    -1.9790 ho         1 3XJ       0.519000
     48 O8           3.3390    -3.4200    -1.1740 oh         1 3XJ      -0.706000
     49 C6          -3.3440     0.9390    -0.2580 c          1 3XJ       0.628700
     50 H6          -0.8840     2.2850    -0.5690 ha         1 3XJ       0.168000
@<TRIPOS>BOND
     1     1    13 1   
     2     2     3 ar  
     3     2    20 ar  
     4     2    50 1   
     5     3    23 ar  
     6     3    46 1   
     7     4    15 1   
     8     4    16 1   
     9     5     6 ar  
    10     5    12 ar  
    11     5    49 1   
    12     6     7 ar  
    13     6    29 1   
    14     7     9 ar  
    15     7    30 1   
    16     8    27 1   
    17     8    47 1   
    18     9    11 ar  
    19     9    13 1   
    20    10    26 1   
    21    10    31 1   
    22    11    12 ar  
    23    11    32 1   
    24    12    33 1   
    25    13    17 1   
    26    14    25 1   
    27    14    34 1   
    28    15    24 1   
    29    15    25 1   
    30    15    35 1   
    31    16    27 1   
    32    16    28 1   
    33    16    37 1   
    34    18    49 2   
    35    19    20 1   
    36    19    38 1   
    37    19    49 1   
    38    20    21 ar  
    39    21    22 ar  
    40    21    39 1   
    41    22    23 ar  
    42    22    40 1   
    43    23    24 1   
    44    25    26 1   
    45    25    41 1   
    46    26    27 1   
    47    26    42 1   
    48    27    43 1   
    49    28    44 1   
    50    28    45 1   
    51    28    48 1   
    52    36    48 1   
@<TRIPOS>SUBSTRUCTURE
     1 3XJ         1 TEMP              0 ****  ****    0 ROOT
