@<TRIPOS>MOLECULE
3XJ
   50    52     1     0     0
SMALL
No Charge or Current Charge


@<TRIPOS>ATOM
      1 O3          -9.8040    -0.4500    -0.2010 o          1 3XJ      -0.712000
      2 C4          -0.2720     1.4450    -0.4650 ca         1 3XJ      -0.107000
      3 C5           1.1240     1.5620    -0.3590 ca         1 3XJ       0.113000
      4 O4           4.0220    -1.3350     0.7300 os         1 3XJ      -0.447000
      5 C7          -4.7970     0.4260    -0.2220 ca         1 3XJ      -0.196600
      6 C8          -5.0690    -0.6360     0.6760 ca         1 3XJ      -0.100000
      7 C9          -6.3850    -1.0880     0.8770 ca         1 3XJ      -0.100000
      8 O5           6.4840    -0.8860    -2.0690 oh         1 3XJ      -0.722000
      9 C10         -7.4710    -0.4990     0.1930 ca         1 3XJ      -0.103600
     10 O6           7.5050     0.9050    -0.0500 oh         1 3XJ      -0.656000
     11 C11         -7.1990     0.5600    -0.7020 ca         1 3XJ      -0.100000
     12 C12         -5.8850     1.0140    -0.9060 ca         1 3XJ      -0.100000
     13 C13         -8.8950    -0.9910     0.4140 c          1 3XJ       0.711600
     14 O7           6.4070    -0.2930     2.2280 oh         1 3XJ      -0.693000
     15 C14          4.0670    -0.0190     1.3330 c6         1 3XJ       0.360300
     16 C15          4.5020    -1.3910    -0.6430 c6         1 3XJ       0.172300
     17 O2          -9.0830    -1.9110     1.1990 o          1 3XJ      -0.712000
     18 O1          -3.1750     1.8630    -1.2470 o          1 3XJ      -0.603100
     19 N           -2.3800     0.3040     0.2510 ns         1 3XJ      -0.145000
     20 C3          -0.9690     0.4850     0.3010 ca         1 3XJ      -0.016000
     21 C2          -0.2400    -0.3490     1.1680 ca         1 3XJ      -0.146000
     22 C1           1.1570    -0.2360     1.2780 ca         1 3XJ      -0.136000
     23 C            1.8540     0.7240     0.5110 ca         1 3XJ       0.096100
     24 O            3.2280     0.8870     0.5840 os         1 3XJ      -0.374100
     25 C18          5.5460     0.5080     1.3740 c6         1 3XJ       0.124300
     26 C17          6.1230     0.5020    -0.0730 c6         1 3XJ       0.140300
     27 C16          5.9870    -0.9150    -0.7150 c6         1 3XJ       0.145300
     28 C19          4.3240    -2.8540    -1.1690 c3         1 3XJ       0.169600
     29 H8          -4.2730    -1.1270     1.2290 ha         1 3XJ       0.097500
     30 H9          -6.5570    -1.9060     1.5740 ha         1 3XJ       0.133500
     31 H14          7.8400     0.5710     0.8150 ho         1 3XJ       0.448000
     32 H10         -8.0110     1.0380    -1.2470 ha         1 3XJ       0.133500
     33 H11         -5.7180     1.8320    -1.6030 ha         1 3XJ       0.097500
     34 H15          6.0640    -0.2230     3.1500 ho         1 3XJ       0.503000
     35 H            3.6950    -0.0770     2.3670 h2         1 3XJ       0.077700
     36 H18          2.9780    -4.2800    -1.3640 ho         1 3XJ       0.500000
     37 H12          3.8810    -0.7330    -1.2680 h1         1 3XJ       0.077700
     38 H7          -2.7140    -0.4340     0.8550 hn         1 3XJ       0.160000
     39 H5          -0.7590    -1.0960     1.7660 ha         1 3XJ       0.116000
     40 H4           1.6770    -0.9020     1.9600 ha         1 3XJ       0.134000
     41 H3           5.5260     1.5470     1.7350 h1         1 3XJ       0.053700
     42 H2           5.5390     1.2110    -0.6800 h1         1 3XJ       0.068700
     43 H1           6.5890    -1.6180    -0.1190 h1         1 3XJ       0.065700
     44 H16          4.9970    -3.5060    -0.5960 h1         1 3XJ       0.033200
     45 H17          4.6560    -2.8860    -2.2150 h1         1 3XJ       0.033200
     46 Cl           1.9530     2.7750    -1.3390 cl         1 3XJ      -0.206000
     47 H13          7.2800    -0.3010    -2.0370 ho         1 3XJ       0.519000
     48 O8           2.9680    -3.3390    -1.0730 oh         1 3XJ      -0.706000
     49 C6          -3.3860     0.9420    -0.4650 c          1 3XJ       0.628700
     50 H6          -0.7870     2.1100    -1.1490 ha         1 3XJ       0.168000
@<TRIPOS>BOND
     1     1    13 1   
     2     2     3 ar  
     3     2    20 ar  
     4     2    50 1   
     5     3    23 ar  
     6     3    46 1   
     7     4    15 1   
     8     4    16 1   
     9     5     6 ar  
    10     5    12 ar  
    11     5    49 1   
    12     6     7 ar  
    13     6    29 1   
    14     7     9 ar  
    15     7    30 1   
    16     8    27 1   
    17     8    47 1   
    18     9    11 ar  
    19     9    13 1   
    20    10    26 1   
    21    10    31 1   
    22    11    12 ar  
    23    11    32 1   
    24    12    33 1   
    25    13    17 1   
    26    14    25 1   
    27    14    34 1   
    28    15    24 1   
    29    15    25 1   
    30    15    35 1   
    31    16    27 1   
    32    16    28 1   
    33    16    37 1   
    34    18    49 2   
    35    19    20 1   
    36    19    38 1   
    37    19    49 1   
    38    20    21 ar  
    39    21    22 ar  
    40    21    39 1   
    41    22    23 ar  
    42    22    40 1   
    43    23    24 1   
    44    25    26 1   
    45    25    41 1   
    46    26    27 1   
    47    26    42 1   
    48    27    43 1   
    49    28    44 1   
    50    28    45 1   
    51    28    48 1   
    52    36    48 1   
@<TRIPOS>SUBSTRUCTURE
     1 3XJ         1 TEMP              0 ****  ****    0 ROOT
