@<TRIPOS>MOLECULE
3XK
   38    41     1     0     0
SMALL
abcg2


@<TRIPOS>ATOM
      1 C7          -3.1580    -0.1920    -0.1120 cp         1 3XK      -0.060000
      2 C9          -5.2420     0.7230    -0.7280 ca         1 3XK       0.386000
      3 N1          -0.6120    -2.4460     0.9280 nb         1 3XK      -0.687000
      4 C2           0.4920    -1.7150     0.9360 ca         1 3XK       0.385900
      5 N2          -2.9550    -2.3650     0.4800 na         1 3XK      -0.315300
      6 C10         -3.8830     0.9130    -0.5280 ca         1 3XK      -0.055000
      7 C4          -1.7830    -0.4480     0.2060 cp         1 3XK      -0.133000
      8 N3          -5.8900    -0.4370    -0.5480 nb         1 3XK      -0.614000
      9 N5          -6.7030     2.7120    -1.5000 n1         1 3XK      -0.440000
     10 C6          -3.8390    -1.4120     0.0760 ca         1 3XK      -0.045200
     11 C19         -6.0550     1.8230    -1.1580 cg         1 3XK       0.227000
     12 C8          -5.2130    -1.4930    -0.1540 ca         1 3XK       0.325900
     13 C3          -1.7090    -1.8090     0.5660 ca         1 3XK       0.417500
     14 C5          -0.6120     0.2920     0.2220 ca         1 3XK       0.000000
     15 C1           0.5630    -0.3540     0.5930 cp         1 3XK      -0.117000
     16 C11          1.8510     0.3620     0.6350 cp         1 3XK      -0.004000
     17 C16          3.0170    -0.2610     0.2030 ca         1 3XK      -0.161000
     18 C15          4.2480     0.3950     0.2330 ca         1 3XK      -0.015000
     19 N4           5.3560    -0.3320    -0.2120 ns         1 3XK      -0.151000
     20 C17          6.6030     0.1080    -0.5270 c          1 3XK       0.609100
     21 O1           6.9640     1.2650    -0.4080 o          1 3XK      -0.578100
     22 C18          7.5100    -0.9610    -1.0810 c3         1 3XK      -0.183100
     23 C14          4.3080     1.7070     0.7040 ca         1 3XK      -0.124000
     24 C13          3.1410     2.3280     1.1290 ca         1 3XK      -0.083000
     25 C12          1.9210     1.6750     1.1020 ca         1 3XK      -0.127000
     26 H1           1.3930    -2.2290     1.2530 h4         1 3XK       0.026100
     27 H2          -3.1740    -3.3290     0.6810 hn         1 3XK       0.373000
     28 H3          -3.4260     1.8790    -0.6920 ha         1 3XK       0.140000
     29 H4          -5.7580    -2.4190    -0.0150 h4         1 3XK       0.033100
     30 H5          -0.6070     1.3370    -0.0630 ha         1 3XK       0.131000
     31 H6           2.9710    -1.2720    -0.1890 ha         1 3XK       0.109000
     32 H7           5.1790    -1.3100    -0.3820 hn         1 3XK       0.149000
     33 H8           7.5160    -0.8920    -2.1710 hc         1 3XK       0.064367
     34 H9           8.5280    -0.7950    -0.7360 hc         1 3XK       0.064367
     35 H10          7.2070    -1.9710    -0.8120 hc         1 3XK       0.064367
     36 H11          5.2410     2.2440     0.7490 ha         1 3XK       0.150000
     37 H12          3.1960     3.3430     1.5010 ha         1 3XK       0.119000
     38 H13          1.0320     2.1750     1.4630 ha         1 3XK       0.117000
@<TRIPOS>BOND
     1     1     6 ar  
     2     1     7 1   
     3     1    10 ar  
     4     2     6 ar  
     5     2     8 ar  
     6     2    11 1   
     7     3     4 ar  
     8     3    13 ar  
     9     4    15 ar  
    10     4    26 1   
    11     5    10 1   
    12     5    13 1   
    13     5    27 1   
    14     6    28 1   
    15     7    13 ar  
    16     7    14 ar  
    17     8    12 ar  
    18     9    11 3   
    19    10    12 ar  
    20    12    29 1   
    21    14    15 ar  
    22    14    30 1   
    23    15    16 1   
    24    16    17 ar  
    25    16    25 ar  
    26    17    18 ar  
    27    17    31 1   
    28    18    19 1   
    29    18    23 ar  
    30    19    20 1   
    31    19    32 1   
    32    20    21 2   
    33    20    22 1   
    34    22    33 1   
    35    22    34 1   
    36    22    35 1   
    37    23    24 ar  
    38    23    36 1   
    39    24    25 ar  
    40    24    37 1   
    41    25    38 1   
@<TRIPOS>SUBSTRUCTURE
     1 3XK         1 TEMP              0 ****  ****    0 ROOT
