@<TRIPOS>MOLECULE
3XK
   38    41     1     0     0
SMALL
No Charge or Current Charge


@<TRIPOS>ATOM
      1 C7          -3.2300    -0.2930    -0.0590 cp         1 3XK      -0.060000
      2 C9          -5.2970     0.8370    -0.5900 ca         1 3XK       0.386000
      3 N1          -0.5890    -2.6100     0.7980 nb         1 3XK      -0.687000
      4 C2           0.5330    -1.8400     0.7910 ca         1 3XK       0.385900
      5 N2          -3.0530    -2.4550     0.4210 na         1 3XK      -0.315300
      6 C10         -3.8930     0.9000    -0.4040 ca         1 3XK      -0.055000
      7 C4          -1.8380    -0.6200     0.2070 cp         1 3XK      -0.133000
      8 N3          -6.0230    -0.3190    -0.4490 nb         1 3XK      -0.614000
      9 N5          -6.6040     3.0090    -1.2330 n1         1 3XK      -0.440000
     10 C6          -3.9760    -1.4490     0.0790 ca         1 3XK      -0.045200
     11 C19         -6.0250     2.0330    -0.9450 cg         1 3XK       0.227000
     12 C8          -5.3660    -1.4620    -0.1150 ca         1 3XK       0.325900
     13 C3          -1.7390    -1.9840     0.5070 ca         1 3XK       0.417500
     14 C5          -0.6830     0.1790     0.1990 ca         1 3XK       0.000000
     15 C1           0.5570    -0.4410     0.5010 cp         1 3XK      -0.117000
     16 C11          1.8370     0.3360     0.5160 cp         1 3XK      -0.004000
     17 C16          3.0630    -0.2620     0.1310 ca         1 3XK      -0.161000
     18 C15          4.2750     0.4540     0.1400 ca         1 3XK      -0.015000
     19 N4           5.4480    -0.2390    -0.2690 ns         1 3XK      -0.151000
     20 C17          6.7770     0.1510    -0.3790 c          1 3XK       0.609100
     21 O1           7.2000     1.2700    -0.1130 o          1 3XK      -0.578100
     22 C18          7.7090    -0.9520    -0.8710 c3         1 3XK      -0.183100
     23 C14          4.2660     1.8060     0.5450 ca         1 3XK      -0.124000
     24 C13          3.0640     2.4190     0.9310 ca         1 3XK      -0.083000
     25 C12          1.8630     1.6940     0.9170 ca         1 3XK      -0.127000
     26 H1           1.4550    -2.3630     1.0420 h4         1 3XK       0.026100
     27 H2          -3.2930    -3.4230     0.5910 hn         1 3XK       0.373000
     28 H3          -3.3500     1.8330    -0.5240 ha         1 3XK       0.140000
     29 H4          -5.9550    -2.3720    -0.0070 h4         1 3XK       0.033100
     30 H5          -0.7460     1.2360    -0.0460 ha         1 3XK       0.131000
     31 H6           3.0710    -1.2990    -0.1950 ha         1 3XK       0.109000
     32 H7           5.2810    -1.2010    -0.5310 hn         1 3XK       0.149000
     33 H8           7.3330    -1.3370    -1.8260 hc         1 3XK       0.064367
     34 H9           8.7510    -0.6220    -0.9490 hc         1 3XK       0.064367
     35 H10          7.6080    -1.8230    -0.2130 hc         1 3XK       0.064367
     36 H11          5.1750     2.3980     0.5690 ha         1 3XK       0.150000
     37 H12          3.0640     3.4610     1.2460 ha         1 3XK       0.119000
     38 H13          0.9480     2.1880     1.2340 ha         1 3XK       0.117000
@<TRIPOS>BOND
     1     1     6 ar  
     2     1     7 1   
     3     1    10 ar  
     4     2     6 ar  
     5     2     8 ar  
     6     2    11 1   
     7     3     4 ar  
     8     3    13 ar  
     9     4    15 ar  
    10     4    26 1   
    11     5    10 1   
    12     5    13 1   
    13     5    27 1   
    14     6    28 1   
    15     7    13 ar  
    16     7    14 ar  
    17     8    12 ar  
    18     9    11 3   
    19    10    12 ar  
    20    12    29 1   
    21    14    15 ar  
    22    14    30 1   
    23    15    16 1   
    24    16    17 ar  
    25    16    25 ar  
    26    17    18 ar  
    27    17    31 1   
    28    18    19 1   
    29    18    23 ar  
    30    19    20 1   
    31    19    32 1   
    32    20    21 2   
    33    20    22 1   
    34    22    33 1   
    35    22    34 1   
    36    22    35 1   
    37    23    24 ar  
    38    23    36 1   
    39    24    25 ar  
    40    24    37 1   
    41    25    38 1   
@<TRIPOS>SUBSTRUCTURE
     1 3XK         1 TEMP              0 ****  ****    0 ROOT
