@<TRIPOS>MOLECULE
3XL
   32    35     1     0     0
SMALL
No Charge or Current Charge


@<TRIPOS>ATOM
      1 N4          -5.5180    -3.2640    -0.2850 n1         1 3XL      -0.443000
      2 C17         -4.9330    -2.2540    -0.1920 cg         1 3XL       0.229000
      3 C9          -4.1980    -1.0150    -0.0790 ca         1 3XL       0.384000
      4 N3          -4.9310     0.1420     0.0060 nb         1 3XL      -0.616000
      5 C8          -4.2670     1.3240     0.1140 ca         1 3XL       0.324900
      6 C6          -2.8630     1.3500     0.1370 ca         1 3XL      -0.046200
      7 N2          -1.9310     2.4000     0.2380 na         1 3XL      -0.316300
      8 C3          -0.6050     1.9550     0.2210 ca         1 3XL       0.416500
      9 N1           0.5550     2.6240     0.2970 nb         1 3XL      -0.690000
     10 C2           1.6870     1.8700     0.2470 ca         1 3XL       0.404900
     11 C10         -2.7800    -1.0400    -0.0600 ca         1 3XL      -0.056000
     12 C7          -2.1110     0.1920     0.0520 cp         1 3XL      -0.059000
     13 C4          -0.7060     0.5630     0.1050 cp         1 3XL      -0.136000
     14 C5           0.4590    -0.2190     0.0580 ca         1 3XL      -0.004000
     15 C1           1.7090     0.4460     0.1260 cp         1 3XL      -0.102000
     16 C11          2.9940    -0.3270     0.0950 cp         1 3XL      -0.073000
     17 C16          3.1180    -1.5130     0.8610 ca         1 3XL      -0.064000
     18 C15          4.3070    -2.2600     0.8560 ca         1 3XL      -0.146000
     19 C14          5.3990    -1.8390     0.0830 ca         1 3XL      -0.061000
     20 C13          5.2970    -0.6710    -0.6900 ca         1 3XL      -0.206000
     21 C12          4.1100     0.0810    -0.6890 ca         1 3XL       0.151100
     22 O1           4.0490     1.1920    -1.4810 oh         1 3XL      -0.530100
     23 H1          -4.8610     2.2340     0.1800 h4         1 3XL       0.032100
     24 H2          -2.1730     3.3790     0.3160 hn         1 3XL       0.372000
     25 H3           2.6200     2.4260     0.3310 h4         1 3XL       0.031100
     26 H4          -2.2330    -1.9760    -0.1290 ha         1 3XL       0.139000
     27 H5           0.3980    -1.3010    -0.0380 ha         1 3XL       0.128000
     28 H6           2.2860    -1.8510     1.4750 ha         1 3XL       0.118000
     29 H7           4.3830    -3.1650     1.4550 ha         1 3XL       0.120000
     30 H8           6.3200    -2.4180     0.0790 ha         1 3XL       0.116000
     31 H9           6.1470    -0.3580    -1.2920 ha         1 3XL       0.116000
     32 H10          4.9030     1.2790    -1.9560 ho         1 3XL       0.467000
@<TRIPOS>BOND
     1     1     2 3   
     2     2     3 1   
     3     3     4 ar  
     4     3    11 ar  
     5     4     5 ar  
     6     5     6 ar  
     7     5    23 1   
     8     6     7 1   
     9     6    12 ar  
    10     7     8 1   
    11     7    24 1   
    12     8     9 ar  
    13     8    13 ar  
    14     9    10 ar  
    15    10    15 ar  
    16    10    25 1   
    17    11    12 ar  
    18    11    26 1   
    19    12    13 1   
    20    13    14 ar  
    21    14    15 ar  
    22    14    27 1   
    23    15    16 1   
    24    16    17 ar  
    25    16    21 ar  
    26    17    18 ar  
    27    17    28 1   
    28    18    19 ar  
    29    18    29 1   
    30    19    20 ar  
    31    19    30 1   
    32    20    21 ar  
    33    20    31 1   
    34    21    22 1   
    35    22    32 1   
@<TRIPOS>SUBSTRUCTURE
     1 3XL         1 TEMP              0 ****  ****    0 ROOT
