@<TRIPOS>MOLECULE
3XL
   32    35     1     0     0
SMALL
abcg2


@<TRIPOS>ATOM
      1 N4          -5.7110    -3.0010    -0.4490 n1         1 3XL      -0.443000
      2 C17         -5.0400    -2.0740    -0.3210 cg         1 3XL       0.229000
      3 C9          -4.2040    -0.9200    -0.1600 ca         1 3XL       0.384000
      4 N3          -4.8500     0.2480    -0.0370 nb         1 3XL      -0.616000
      5 C8          -4.1520     1.3510     0.1140 ca         1 3XL       0.324900
      6 C6          -2.7580     1.3130     0.1480 ca         1 3XL      -0.046200
      7 N2          -1.8510     2.3170     0.2960 na         1 3XL      -0.316300
      8 C3          -0.5910     1.7850     0.2690 ca         1 3XL       0.416500
      9 N1           0.5290     2.4740     0.3890 nb         1 3XL      -0.690000
     10 C2           1.6430     1.7620     0.3310 ca         1 3XL       0.404900
     11 C10         -2.8250    -1.0720    -0.1390 ca         1 3XL      -0.056000
     12 C7          -2.0770     0.0850     0.0200 cp         1 3XL      -0.059000
     13 C4          -0.6780     0.3910     0.0990 cp         1 3XL      -0.136000
     14 C5           0.5060    -0.3300     0.0390 ca         1 3XL      -0.004000
     15 C1           1.7010     0.3680     0.1540 cp         1 3XL      -0.102000
     16 C11          2.9980    -0.3390     0.1340 cp         1 3XL      -0.073000
     17 C16          3.2230    -1.4170     0.9870 ca         1 3XL      -0.064000
     18 C15          4.4250    -2.1080     0.9870 ca         1 3XL      -0.146000
     19 C14          5.4310    -1.7150     0.1150 ca         1 3XL      -0.061000
     20 C13          5.2300    -0.6510    -0.7510 ca         1 3XL      -0.206000
     21 C12          4.0190     0.0350    -0.7510 ca         1 3XL       0.151100
     22 O1           3.7740     1.0540    -1.5970 oh         1 3XL      -0.530100
     23 H1          -4.6970     2.2830     0.2120 h4         1 3XL       0.032100
     24 H2          -2.0630     3.2970     0.4040 hn         1 3XL       0.372000
     25 H3           2.5640     2.3220     0.4470 h4         1 3XL       0.031100
     26 H4          -2.3710    -2.0470    -0.2450 ha         1 3XL       0.139000
     27 H5           0.5030    -1.4040    -0.1020 ha         1 3XL       0.128000
     28 H6           2.4390    -1.7090     1.6760 ha         1 3XL       0.118000
     29 H7           4.5750    -2.9380     1.6630 ha         1 3XL       0.120000
     30 H8           6.3790    -2.2370     0.1030 ha         1 3XL       0.116000
     31 H9           6.0160    -0.3550    -1.4370 ha         1 3XL       0.116000
     32 H10          4.5430     1.2190    -2.1540 ho         1 3XL       0.467000
@<TRIPOS>BOND
     1     1     2 3   
     2     2     3 1   
     3     3     4 ar  
     4     3    11 ar  
     5     4     5 ar  
     6     5     6 ar  
     7     5    23 1   
     8     6     7 1   
     9     6    12 ar  
    10     7     8 1   
    11     7    24 1   
    12     8     9 ar  
    13     8    13 ar  
    14     9    10 ar  
    15    10    15 ar  
    16    10    25 1   
    17    11    12 ar  
    18    11    26 1   
    19    12    13 1   
    20    13    14 ar  
    21    14    15 ar  
    22    14    27 1   
    23    15    16 1   
    24    16    17 ar  
    25    16    21 ar  
    26    17    18 ar  
    27    17    28 1   
    28    18    19 ar  
    29    18    29 1   
    30    19    20 ar  
    31    19    30 1   
    32    20    21 ar  
    33    20    31 1   
    34    21    22 1   
    35    22    32 1   
@<TRIPOS>SUBSTRUCTURE
     1 3XL         1 TEMP              0 ****  ****    0 ROOT
