@<TRIPOS>MOLECULE
3XM
   41    42     1     0     0
SMALL
abcg2


@<TRIPOS>ATOM
      1 CAA         -5.7140    -0.7650     0.0110 ca         1 3XM       0.145100
      2 CAB         -5.3150     0.1490    -0.9600 ca         1 3XM      -0.177500
      3 CAC         -4.0180     0.6350    -0.9570 ca         1 3XM      -0.053500
      4 CAD         -3.0920     0.2390     0.0070 ca         1 3XM      -0.065800
      5 CAE         -3.5080    -0.6750     0.9730 ca         1 3XM      -0.053500
      6 CAF         -4.8000    -1.1750     0.9800 ca         1 3XM      -0.177500
      7 CAG         -1.7320     0.8120     0.0150 cc         1 3XM      -0.180200
      8 CAH         -1.5410     2.1580     0.0130 cd         1 3XM       0.029600
      9 NAI         -0.3190     2.7120    -0.0100 ns         1 3XM      -0.372100
     10 CAJ          0.8770     2.0140    -0.0240 c          1 3XM       0.596200
     11 CAK          0.7310     0.5750    -0.0270 cd         1 3XM      -0.489400
     12 CAL         -0.5600     0.0050    -0.0150 cc         1 3XM       0.340100
     13 OAM         -0.7330    -1.2890    -0.0400 oh         1 3XM      -0.536100
     14 OAN         -6.9820    -1.2180    -0.0300 oh         1 3XM      -0.532100
     15 OAO          1.9240     2.6500    -0.0340 o          1 3XM      -0.565000
     16 CAP          1.8790    -0.3250    -0.0520 c          1 3XM       0.632300
     17 CAQ          3.2930     0.1790    -0.0530 c3         1 3XM      -0.159400
     18 OAR          1.6880    -1.5500    -0.0700 o          1 3XM      -0.608100
     19 CAS          4.3530    -0.9110    -0.0580 c3         1 3XM      -0.066400
     20 CAT          5.7550    -0.3120    -0.0490 c3         1 3XM      -0.078400
     21 CAU          6.8570    -1.3630    -0.0510 c3         1 3XM      -0.074400
     22 CAV          8.2520    -0.7520    -0.0390 c3         1 3XM      -0.089100
     23 HAB         -6.0160     0.4720    -1.7190 ha         1 3XM       0.122500
     24 HAC         -3.7220     1.3320    -1.7330 ha         1 3XM       0.115500
     25 HAE         -2.8260    -0.9970     1.7500 ha         1 3XM       0.115500
     26 HAF         -5.0970    -1.8790     1.7490 ha         1 3XM       0.122500
     27 HAH         -2.3680     2.8530     0.0370 h4         1 3XM       0.208000
     28 HNAI        -0.2460     3.7200    -0.0030 hn         1 3XM       0.334500
     29 HOAM         0.1930    -1.6960    -0.0600 ho         1 3XM       0.544000
     30 HOAN        -7.1360    -1.8530     0.6790 ho         1 3XM       0.466000
     31 H1AQ         3.4200     0.8380    -0.9160 hc         1 3XM       0.082700
     32 H2AQ         3.4240     0.8340     0.8120 hc         1 3XM       0.082700
     33 H1AS         4.2330    -1.5630     0.8120 hc         1 3XM       0.049200
     34 H2AS         4.2390    -1.5500    -0.9390 hc         1 3XM       0.049200
     35 H1AT         5.8770     0.3430    -0.9190 hc         1 3XM       0.038200
     36 H2AT         5.8700     0.3320     0.8300 hc         1 3XM       0.038200
     37 H1AU         6.7350    -2.0180     0.8170 hc         1 3XM       0.037700
     38 H2AU         6.7450    -2.0040    -0.9310 hc         1 3XM       0.037700
     39 H1AV         8.4120    -0.1180    -0.9130 hc         1 3XM       0.031367
     40 H2AV         8.4020    -0.1320     0.8470 hc         1 3XM       0.031367
     41 H3AV         9.0270    -1.5200    -0.0400 hc         1 3XM       0.031367
@<TRIPOS>BOND
     1     1     2 ar  
     2     1     6 ar  
     3     1    14 1   
     4     2     3 ar  
     5     2    23 1   
     6     3     4 ar  
     7     3    24 1   
     8     4     5 ar  
     9     4     7 1   
    10     5     6 ar  
    11     5    25 1   
    12     6    26 1   
    13     7     8 2   
    14     7    12 1   
    15     8     9 1   
    16     8    27 1   
    17     9    10 1   
    18     9    28 1   
    19    10    11 1   
    20    10    15 2   
    21    11    12 2   
    22    11    16 1   
    23    12    13 1   
    24    13    29 1   
    25    14    30 1   
    26    16    17 1   
    27    16    18 2   
    28    17    19 1   
    29    17    31 1   
    30    17    32 1   
    31    19    20 1   
    32    19    33 1   
    33    19    34 1   
    34    20    21 1   
    35    20    35 1   
    36    20    36 1   
    37    21    22 1   
    38    21    37 1   
    39    21    38 1   
    40    22    39 1   
    41    22    40 1   
    42    22    41 1   
@<TRIPOS>SUBSTRUCTURE
     1 3XM         1 TEMP              0 ****  ****    0 ROOT
