@<TRIPOS>MOLECULE
3XM
   41    42     1     0     0
SMALL
No Charge or Current Charge


@<TRIPOS>ATOM
      1 CAA         -5.8870    -0.6130     0.1490 ca         1 3XM       0.145100
      2 CAB         -5.5630     0.5060    -0.6260 ca         1 3XM      -0.177500
      3 CAC         -4.2270     0.9320    -0.7320 ca         1 3XM      -0.053500
      4 CAD         -3.1850     0.2380    -0.0660 ca         1 3XM      -0.065800
      5 CAE         -3.5370    -0.8890     0.7150 ca         1 3XM      -0.053500
      6 CAF         -4.8750    -1.3090     0.8220 ca         1 3XM      -0.177500
      7 CAG         -1.7790     0.6990    -0.1810 cc         1 3XM      -0.180200
      8 CAH         -1.6290     2.0700    -0.2110 cd         1 3XM       0.029600
      9 NAI         -0.3650     2.6060    -0.2250 ns         1 3XM      -0.372100
     10 CAJ          0.8130     1.9210    -0.1820 c          1 3XM       0.596200
     11 CAK          0.6860     0.4450    -0.1150 cd         1 3XM      -0.489400
     12 CAL         -0.5850    -0.1220    -0.1060 cc         1 3XM       0.340100
     13 OAM         -0.7570    -1.4500    -0.0970 oh         1 3XM      -0.536100
     14 OAN         -7.1850    -1.0150     0.2460 oh         1 3XM      -0.532100
     15 OAO          1.8560     2.5460    -0.1990 o          1 3XM      -0.565000
     16 CAP          1.9030    -0.4310    -0.0620 c          1 3XM       0.632300
     17 CAQ          3.3420     0.1270    -0.0670 c3         1 3XM      -0.159400
     18 OAR          1.7610    -1.6480    -0.0120 o          1 3XM      -0.608100
     19 CAS          4.4830    -0.9210    -0.0030 c3         1 3XM      -0.066400
     20 CAT          5.8880    -0.2790    -0.0120 c3         1 3XM      -0.078400
     21 CAU          7.0280    -1.3190     0.0510 c3         1 3XM      -0.074400
     22 CAV          8.4300    -0.6780     0.0420 c3         1 3XM      -0.089100
     23 HAB         -6.3460     1.0460    -1.1520 ha         1 3XM       0.122500
     24 HAC         -4.0090     1.7870    -1.3670 ha         1 3XM       0.115500
     25 HAE         -2.7850    -1.4290     1.2830 ha         1 3XM       0.115500
     26 HAF         -5.1150    -2.1740     1.4360 ha         1 3XM       0.122500
     27 HAH         -2.4300     2.8040    -0.1930 h4         1 3XM       0.208000
     28 HNAI        -0.2480     3.6120    -0.2570 hn         1 3XM       0.334500
     29 HOAM         0.1740    -1.7970    -0.0640 ho         1 3XM       0.544000
     30 HOAN        -7.2220    -1.8080     0.8240 ho         1 3XM       0.466000
     31 H1AQ         3.4480     0.7680    -0.9490 hc         1 3XM       0.082700
     32 H2AQ         3.4250     0.8460     0.7540 hc         1 3XM       0.082700
     33 H1AS         4.3700    -1.5250     0.9070 hc         1 3XM       0.049200
     34 H2AS         4.3950    -1.6050    -0.8570 hc         1 3XM       0.049200
     35 H1AT         6.0020     0.3250    -0.9210 hc         1 3XM       0.038200
     36 H2AT         5.9770     0.4060     0.8410 hc         1 3XM       0.038200
     37 H1AU         6.9190    -1.9230     0.9600 hc         1 3XM       0.037700
     38 H2AU         6.9440    -2.0040    -0.8010 hc         1 3XM       0.037700
     39 H1AV         8.5830    -0.0940    -0.8730 hc         1 3XM       0.031367
     40 H2AV         8.5580    -0.0130     0.9040 hc         1 3XM       0.031367
     41 H3AV         9.2040    -1.4530     0.0880 hc         1 3XM       0.031367
@<TRIPOS>BOND
     1     1     2 ar  
     2     1     6 ar  
     3     1    14 1   
     4     2     3 ar  
     5     2    23 1   
     6     3     4 ar  
     7     3    24 1   
     8     4     5 ar  
     9     4     7 1   
    10     5     6 ar  
    11     5    25 1   
    12     6    26 1   
    13     7     8 2   
    14     7    12 1   
    15     8     9 1   
    16     8    27 1   
    17     9    10 1   
    18     9    28 1   
    19    10    11 1   
    20    10    15 2   
    21    11    12 2   
    22    11    16 1   
    23    12    13 1   
    24    13    29 1   
    25    14    30 1   
    26    16    17 1   
    27    16    18 2   
    28    17    19 1   
    29    17    31 1   
    30    17    32 1   
    31    19    20 1   
    32    19    33 1   
    33    19    34 1   
    34    20    21 1   
    35    20    35 1   
    36    20    36 1   
    37    21    22 1   
    38    21    37 1   
    39    21    38 1   
    40    22    39 1   
    41    22    40 1   
    42    22    41 1   
@<TRIPOS>SUBSTRUCTURE
     1 3XM         1 TEMP              0 ****  ****    0 ROOT
