@<TRIPOS>MOLECULE
3XN
   50    53     1     0     0
SMALL
abcg2


@<TRIPOS>ATOM
      1 O3          -6.5550    -2.1760    -0.7640 oh         1 3XN      -0.649000
      2 C4          -4.7430     1.0140    -0.1830 c6         1 3XN       0.171300
      3 C5          -5.1850     2.4240     0.1450 c3         1 3XN       0.169600
      4 O4          -5.4060    -1.8120     1.7450 oh         1 3XN      -0.687000
      5 C6          -1.3250    -0.3570    -0.1740 ca         1 3XN       0.149100
      6 C7          -0.9350     0.6190     0.7390 ca         1 3XN      -0.148500
      7 C8           0.3770     1.0720     0.7410 ca         1 3XN      -0.076500
      8 C9           1.2940     0.5870    -0.1780 ca         1 3XN      -0.045200
      9 O5          -2.5680    -0.8870    -0.2500 os         1 3XN      -0.384100
     10 C10          0.8970    -0.3690    -1.1070 ca         1 3XN      -0.076500
     11 O6           7.7420    -2.3900     0.5380 o          1 3XN      -0.410000
     12 C11         -0.4000    -0.8460    -1.0960 ca         1 3XN      -0.148500
     13 C12          2.9760     2.4020    -0.2910 cc         1 3XN      -0.147100
     14 C13          4.3280     2.5330    -0.2350 cd         1 3XN      -0.221200
     15 O7           8.5660    -0.4400     0.2900 o          1 3XN      -0.410000
     16 C14          4.8560     1.2150    -0.0740 ca         1 3XN      -0.122800
     17 C15          3.7540     0.3290    -0.0390 ca         1 3XN      -0.007200
     18 C18          6.2910    -0.6530     0.2230 ca         1 3XN      -0.214200
     19 C19          6.1460     0.7120     0.0550 ca         1 3XN       0.020000
     20 C17          5.1950    -1.5310     0.2720 ca         1 3XN      -0.043000
     21 C16          3.9150    -1.0450     0.1420 ca         1 3XN      -0.131000
     22 N            2.6210     1.0750    -0.1770 na         1 3XN       0.017500
     23 C           -3.4690    -0.7330     0.8240 c6         1 3XN       0.358300
     24 O           -3.9730     0.5540     0.9180 os         1 3XN      -0.446000
     25 O1          -4.0450     3.2380     0.2830 oh         1 3XN      -0.715000
     26 C3          -5.9330     0.0830    -0.4200 c6         1 3XN       0.146300
     27 O2          -6.5990     0.5260    -1.5780 oh         1 3XN      -0.722000
     28 C2          -5.4310    -1.3480    -0.5890 c6         1 3XN       0.141300
     29 C1          -4.5820    -1.7650     0.6100 c6         1 3XN       0.124300
     30 HO3         -6.2820    -2.9750    -1.2250 ho         1 3XN       0.450000
     31 H4          -4.1300     1.0390    -1.0950 h1         1 3XN       0.070700
     32 H52         -5.8380     2.7750    -0.6600 h1         1 3XN       0.039200
     33 H51         -5.7870     2.4030     1.0650 h1         1 3XN       0.039200
     34 HO4         -4.9430    -2.2870     2.4420 ho         1 3XN       0.506000
     35 H7          -1.6280     1.0470     1.4480 ha         1 3XN       0.140000
     36 H8           0.6770     1.8150     1.4690 ha         1 3XN       0.130000
     37 H10          1.5970    -0.7450    -1.8410 ha         1 3XN       0.130000
     38 H11         -0.7050    -1.5980    -1.8120 ha         1 3XN       0.140000
     39 H13          4.8830     3.4530    -0.3090 ha         1 3XN       0.216000
     40 H19          6.9980     1.3760     0.0300 ha         1 3XN       0.152000
     41 H17          5.3470    -2.5910     0.4100 ha         1 3XN       0.148000
     42 H16          3.0710    -1.7190     0.1800 ha         1 3XN       0.131000
     43 H           -2.9510    -0.9240     1.7720 h2         1 3XN       0.079700
     44 HO1         -4.3430     4.1460     0.3810 ho         1 3XN       0.504000
     45 H3          -6.5950     0.1300     0.4570 h1         1 3XN       0.071700
     46 HO2         -7.3030    -0.1030    -1.7690 ho         1 3XN       0.524000
     47 H2          -4.7900    -1.3730    -1.4810 h1         1 3XN       0.059700
     48 H1          -4.1240    -2.7430     0.4100 h1         1 3XN       0.051700
     49 H12          2.2140     3.1540    -0.4200 h4         1 3XN       0.224000
     50 N1           7.6240    -1.1980     0.3600 no         1 3XN       0.699200
@<TRIPOS>BOND
     1     1    28 1   
     2     1    30 1   
     3     2     3 1   
     4     2    24 1   
     5     2    26 1   
     6     2    31 1   
     7     3    25 1   
     8     3    32 1   
     9     3    33 1   
    10     4    29 1   
    11     4    34 1   
    12     5     6 ar  
    13     5     9 1   
    14     5    12 ar  
    15     6     7 ar  
    16     6    35 1   
    17     7     8 ar  
    18     7    36 1   
    19     8    10 ar  
    20     8    22 1   
    21     9    23 1   
    22    10    12 ar  
    23    10    37 1   
    24    11    50 1   
    25    12    38 1   
    26    13    14 2   
    27    13    22 1   
    28    13    49 1   
    29    14    16 1   
    30    14    39 1   
    31    15    50 1   
    32    16    17 ar  
    33    16    19 ar  
    34    17    21 ar  
    35    17    22 1   
    36    18    19 ar  
    37    18    20 ar  
    38    18    50 1   
    39    19    40 1   
    40    20    21 ar  
    41    20    41 1   
    42    21    42 1   
    43    23    24 1   
    44    23    29 1   
    45    23    43 1   
    46    25    44 1   
    47    26    27 1   
    48    26    28 1   
    49    26    45 1   
    50    27    46 1   
    51    28    29 1   
    52    28    47 1   
    53    29    48 1   
@<TRIPOS>SUBSTRUCTURE
     1 3XN         1 TEMP              0 ****  ****    0 ROOT
