@<TRIPOS>MOLECULE
3XN
   50    53     1     0     0
SMALL
No Charge or Current Charge


@<TRIPOS>ATOM
      1 O3          -6.7010    -2.2070    -0.8120 oh         1 3XN      -0.649000
      2 C4          -4.5770     0.9410    -0.3570 c6         1 3XN       0.171300
      3 C5          -4.8860     2.4730    -0.2650 c3         1 3XN       0.169600
      4 O4          -5.8080    -1.6950     1.7890 oh         1 3XN      -0.687000
      5 C6          -1.3220    -0.5500     0.0040 ca         1 3XN       0.149100
      6 C7          -0.8930     0.2520     1.0850 ca         1 3XN      -0.148500
      7 C8           0.4040     0.7960     1.0880 ca         1 3XN      -0.076500
      8 C9           1.2850     0.5440     0.0190 ca         1 3XN      -0.045200
      9 O5          -2.5770    -1.1230    -0.0640 os         1 3XN      -0.384100
     10 C10          0.8560    -0.2550    -1.0570 ca         1 3XN      -0.076500
     11 O6           8.0080    -2.2580    -0.1420 o          1 3XN      -0.410000
     12 C11         -0.4400    -0.7990    -1.0600 ca         1 3XN      -0.148500
     13 C12          2.7970     2.4670     0.1510 cc         1 3XN      -0.147100
     14 C13          4.1850     2.5610     0.1680 cd         1 3XN      -0.221200
     15 O7           8.7210    -0.2010     0.0120 o          1 3XN      -0.410000
     16 C14          4.7890     1.2490     0.0670 ca         1 3XN      -0.122800
     17 C15          3.7520     0.3620    -0.0140 ca         1 3XN      -0.007200
     18 C18          6.3970    -0.5490    -0.0420 ca         1 3XN      -0.214200
     19 C19          6.1290     0.8420     0.0560 ca         1 3XN       0.020000
     20 C17          5.3120    -1.4730    -0.1190 ca         1 3XN      -0.043000
     21 C16          3.9750    -1.0180    -0.1030 ca         1 3XN      -0.131000
     22 N            2.5690     1.0860     0.0230 na         1 3XN       0.017500
     23 C           -3.5810    -0.8740     0.9430 c6         1 3XN       0.358300
     24 O           -3.9820     0.5170     0.9020 os         1 3XN      -0.446000
     25 O1          -3.7310     3.2760     0.0610 oh         1 3XN      -0.715000
     26 C3          -5.8550     0.0990    -0.6600 c6         1 3XN       0.146300
     27 O2          -6.4410     0.4380    -1.9340 oh         1 3XN      -0.722000
     28 C2          -5.5080    -1.4230    -0.6270 c6         1 3XN       0.141300
     29 C1          -4.8290    -1.8040     0.7220 c6         1 3XN       0.124300
     30 HO3         -7.0410    -2.3520     0.1020 ho         1 3XN       0.450000
     31 H4          -3.8470     0.7950    -1.1660 h1         1 3XN       0.070700
     32 H52         -5.3040     2.7960    -1.2280 h1         1 3XN       0.039200
     33 H51         -5.6690     2.6150     0.4920 h1         1 3XN       0.039200
     34 HO4         -5.3820    -2.0100     2.6210 ho         1 3XN       0.506000
     35 H7          -1.5460     0.4660     1.9260 ha         1 3XN       0.140000
     36 H8           0.7270     1.4110     1.9260 ha         1 3XN       0.130000
     37 H10          1.5260    -0.4520    -1.8920 ha         1 3XN       0.130000
     38 H11         -0.7660    -1.4160    -1.8940 ha         1 3XN       0.140000
     39 H13          4.7340     3.4970     0.2540 ha         1 3XN       0.216000
     40 H19          6.9260     1.5810     0.1230 ha         1 3XN       0.152000
     41 H17          5.4980    -2.5430    -0.1900 ha         1 3XN       0.148000
     42 H16          3.1470    -1.7210    -0.1560 ha         1 3XN       0.131000
     43 H           -3.1560    -1.1020     1.9320 h2         1 3XN       0.079700
     44 HO1         -4.0450     4.2050     0.1590 ho         1 3XN       0.504000
     45 H3          -6.5810     0.3000     0.1440 h1         1 3XN       0.071700
     46 HO2         -7.0190    -0.3300    -2.1640 ho         1 3XN       0.524000
     47 H2          -4.7980    -1.6310    -1.4420 h1         1 3XN       0.059700
     48 H1          -4.4700    -2.8420     0.6500 h1         1 3XN       0.051700
     49 H12          2.0080     3.2100     0.2090 h4         1 3XN       0.224000
     50 N1           7.8110    -1.0380    -0.0580 no         1 3XN       0.699200
@<TRIPOS>BOND
     1     1    28 1   
     2     1    30 1   
     3     2     3 1   
     4     2    24 1   
     5     2    26 1   
     6     2    31 1   
     7     3    25 1   
     8     3    32 1   
     9     3    33 1   
    10     4    29 1   
    11     4    34 1   
    12     5     6 ar  
    13     5     9 1   
    14     5    12 ar  
    15     6     7 ar  
    16     6    35 1   
    17     7     8 ar  
    18     7    36 1   
    19     8    10 ar  
    20     8    22 1   
    21     9    23 1   
    22    10    12 ar  
    23    10    37 1   
    24    11    50 1   
    25    12    38 1   
    26    13    14 2   
    27    13    22 1   
    28    13    49 1   
    29    14    16 1   
    30    14    39 1   
    31    15    50 1   
    32    16    17 ar  
    33    16    19 ar  
    34    17    21 ar  
    35    17    22 1   
    36    18    19 ar  
    37    18    20 ar  
    38    18    50 1   
    39    19    40 1   
    40    20    21 ar  
    41    20    41 1   
    42    21    42 1   
    43    23    24 1   
    44    23    29 1   
    45    23    43 1   
    46    25    44 1   
    47    26    27 1   
    48    26    28 1   
    49    26    45 1   
    50    27    46 1   
    51    28    29 1   
    52    28    47 1   
    53    29    48 1   
@<TRIPOS>SUBSTRUCTURE
     1 3XN         1 TEMP              0 ****  ****    0 ROOT
