@<TRIPOS>MOLECULE
3XO
   59    62     1     0     0
SMALL
No Charge or Current Charge


@<TRIPOS>ATOM
      1 O3           4.1110     0.8720     0.6960 os         1 3XO      -0.438000
      2 C4          -0.2850     0.5780    -1.6120 ca         1 3XO      -0.152000
      3 C5           1.0930     0.3430    -1.7500 ca         1 3XO       0.124000
      4 O4           6.5610    -1.6360     2.0420 oh         1 3XO      -0.724000
      5 C6          -3.1940     0.5370     0.7280 cc         1 3XO      -0.054200
      6 N1          -5.6670     0.4770     0.0510 nh         1 3XO      -0.640400
      7 C7          -4.5700     0.6110     0.9310 cd         1 3XO       0.027800
      8 C8          -4.4140     0.9040     2.3860 c          1 3XO       0.475300
      9 N2          -7.7810    -1.5380    -0.4680 n3         1 3XO      -0.713600
     10 C9          -2.8920     0.8200     2.1610 c          1 3XO       0.487300
     11 O5           7.4280    -1.3350    -0.6900 oh         1 3XO      -0.652000
     12 C10         -7.0660     0.6850     0.5390 c6         1 3XO       0.221800
     13 O6           6.4170     1.2180    -1.2140 oh         1 3XO      -0.691000
     14 C11         -7.8100    -0.6710     0.7510 c6         1 3XO       0.142300
     15 C12         -6.3700    -1.7520    -0.9180 c6         1 3XO       0.142300
     16 C13         -5.5980    -0.4130    -1.1500 c6         1 3XO       0.221800
     17 C14         -8.5210    -2.8060    -0.2850 c3         1 3XO       0.150100
     18 C15          4.0670     0.4790    -0.6960 c6         1 3XO       0.353300
     19 O2          -1.8920     0.9670     2.8650 o          1 3XO      -0.476100
     20 O1          -5.1530     1.1210     3.3480 o          1 3XO      -0.482100
     21 C3          -0.9740     0.1200    -0.4780 ca         1 3XO       0.307000
     22 C2          -0.2810    -0.6020     0.5090 ca         1 3XO      -0.117000
     23 C1           1.0990    -0.8440     0.3770 ca         1 3XO      -0.070000
     24 Cl           1.9000     0.9010    -3.2190 cl         1 3XO      -0.198000
     25 C            1.7950    -0.3590    -0.7430 ca         1 3XO       0.084100
     26 O            3.1430    -0.6200    -0.8520 os         1 3XO      -0.383100
     27 C19          5.5000     0.0910    -1.2070 c6         1 3XO       0.123300
     28 C18          6.0810    -1.0250    -0.2890 c6         1 3XO       0.142300
     29 C17          6.0550    -0.5740     1.2060 c6         1 3XO       0.147300
     30 C16          4.6060    -0.1540     1.6030 c6         1 3XO       0.168300
     31 C20          4.5270     0.4010     3.0640 c3         1 3XO       0.169600
     32 H6          -0.8160     1.1180    -2.3900 ha         1 3XO       0.128000
     33 H20          7.3080    -2.0320     1.5290 ho         1 3XO       0.522000
     34 H21          7.7840    -0.4800    -1.0280 ho         1 3XO       0.448000
     35 H8          -7.0770     1.2540     1.4790 h1         1 3XO       0.062700
     36 H9          -7.6260     1.2800    -0.1970 h1         1 3XO       0.062700
     37 H22          6.0790     1.8760    -1.8660 ho         1 3XO       0.505000
     38 H11         -8.8480    -0.4570     1.0430 h1         1 3XO       0.045950
     39 H10         -7.3410    -1.1940     1.5980 h1         1 3XO       0.045950
     40 H12         -5.8210    -2.3400    -0.1680 h1         1 3XO       0.045950
     41 H13         -6.3520    -2.3310    -1.8530 h1         1 3XO       0.045950
     42 H15         -6.0390     0.1020    -2.0160 h1         1 3XO       0.062700
     43 H14         -4.5610    -0.6530    -1.4150 h1         1 3XO       0.062700
     44 H25          3.2730     1.2210     4.3440 ho         1 3XO       0.505000
     45 H18         -9.5650    -2.6090    -0.0070 h1         1 3XO       0.035367
     46 H17         -8.5240    -3.3900    -1.2150 h1         1 3XO       0.035367
     47 H16         -8.0640    -3.4170     0.5050 h1         1 3XO       0.035367
     48 H            3.7130     1.3330    -1.2910 h2         1 3XO       0.082700
     49 H7          -2.7980     0.5570    -1.2710 hn         1 3XO       0.495000
     50 H5          -0.8110    -0.9920     1.3720 ha         1 3XO       0.134000
     51 H4           1.6260    -1.4050     1.1440 ha         1 3XO       0.150000
     52 H3           5.3990    -0.3140    -2.2250 h1         1 3XO       0.052700
     53 H2           5.4470    -1.9190    -0.3900 h1         1 3XO       0.060700
     54 H1           6.6990     0.3130     1.3080 h1         1 3XO       0.070700
     55 H19          3.9510    -1.0340     1.5430 h1         1 3XO       0.065700
     56 H23          5.2310     1.2400     3.1480 h1         1 3XO       0.037700
     57 H24          4.8750    -0.3840     3.7490 h1         1 3XO       0.037700
     58 O7           3.2010     0.8280     3.4430 oh         1 3XO      -0.716000
     59 N           -2.3490     0.3560    -0.3730 nu         1 3XO      -0.812000
@<TRIPOS>BOND
     1     1    18 1   
     2     1    30 1   
     3     2     3 ar  
     4     2    21 ar  
     5     2    32 1   
     6     3    24 1   
     7     3    25 ar  
     8     4    29 1   
     9     4    33 1   
    10     5     7 2   
    11     5    10 1   
    12     5    59 1   
    13     6     7 1   
    14     6    12 1   
    15     6    16 1   
    16     7     8 1   
    17     8    10 1   
    18     8    20 2   
    19     9    14 1   
    20     9    15 1   
    21     9    17 1   
    22    10    19 2   
    23    11    28 1   
    24    11    34 1   
    25    12    14 1   
    26    12    35 1   
    27    12    36 1   
    28    13    27 1   
    29    13    37 1   
    30    14    38 1   
    31    14    39 1   
    32    15    16 1   
    33    15    40 1   
    34    15    41 1   
    35    16    42 1   
    36    16    43 1   
    37    17    45 1   
    38    17    46 1   
    39    17    47 1   
    40    18    26 1   
    41    18    27 1   
    42    18    48 1   
    43    21    22 ar  
    44    21    59 1   
    45    22    23 ar  
    46    22    50 1   
    47    23    25 ar  
    48    23    51 1   
    49    25    26 1   
    50    27    28 1   
    51    27    52 1   
    52    28    29 1   
    53    28    53 1   
    54    29    30 1   
    55    29    54 1   
    56    30    31 1   
    57    30    55 1   
    58    31    56 1   
    59    31    57 1   
    60    31    58 1   
    61    44    58 1   
    62    49    59 1   
@<TRIPOS>SUBSTRUCTURE
     1 3XO         1 TEMP              0 ****  ****    0 ROOT
