@<TRIPOS>MOLECULE
3XO
   59    62     1     0     0
SMALL
abcg2


@<TRIPOS>ATOM
      1 O3           3.9980     0.6990     1.0540 os         1 3XO      -0.438000
      2 C4          -0.2680     0.3460    -1.8290 ca         1 3XO      -0.152000
      3 C5           1.1050     0.1760    -1.8440 ca         1 3XO       0.124000
      4 O4           6.6110    -1.7120     1.7620 oh         1 3XO      -0.724000
      5 C6          -3.0970     0.6680     0.3700 cc         1 3XO      -0.054200
      6 N1          -5.5720     0.2310     0.0830 nh         1 3XO      -0.640400
      7 C7          -4.4740     0.6770     0.6590 cd         1 3XO       0.027800
      8 C8          -4.2300     1.4310     1.9090 c          1 3XO       0.475300
      9 N2          -7.7400    -1.5390    -0.3290 n3         1 3XO      -0.713600
     10 C9          -2.7630     1.4060     1.5840 c          1 3XO       0.487300
     11 O5           7.3850    -0.7600    -0.7860 oh         1 3XO      -0.652000
     12 C10         -6.8990     0.5630     0.5800 c6         1 3XO       0.221800
     13 O6           6.0650     1.6770    -0.7270 oh         1 3XO      -0.691000
     14 C11         -7.6880    -0.7050     0.8550 c6         1 3XO       0.142300
     15 C12         -6.4040    -1.8980    -0.7580 c6         1 3XO       0.142300
     16 C13         -5.5850    -0.6560    -1.0680 c6         1 3XO       0.221800
     17 C14         -8.5630    -2.7100    -0.1200 c3         1 3XO       0.150100
     18 C15          3.9320     0.6560    -0.3280 c6         1 3XO       0.353300
     19 O2          -1.7580     1.8380     2.1050 o          1 3XO      -0.476100
     20 O1          -4.9170     1.8990     2.7870 o          1 3XO      -0.482100
     21 C3          -0.9770     0.0830    -0.6610 ca         1 3XO       0.307000
     22 C2          -0.3000    -0.3610     0.4720 ca         1 3XO      -0.117000
     23 C1           1.0760    -0.5070     0.4450 ca         1 3XO      -0.070000
     24 CL           1.9880     0.5060    -3.2920 cl         1 3XO      -0.198000
     25 C            1.7970    -0.2510    -0.7140 ca         1 3XO       0.084100
     26 O            3.1410    -0.4300    -0.7810 os         1 3XO      -0.383100
     27 C19          5.3160     0.5150    -0.9690 c6         1 3XO       0.123300
     28 C18          6.0510    -0.6700    -0.3470 c6         1 3XO       0.142300
     29 C17          6.0680    -0.5540     1.1740 c6         1 3XO       0.147300
     30 C16          4.6330    -0.4070     1.6800 c6         1 3XO       0.168300
     31 C20          4.5660    -0.1730     3.1730 c3         1 3XO       0.169600
     32 H6          -0.7820     0.6930    -2.7160 ha         1 3XO       0.128000
     33 H20          7.4940    -1.8400     1.4010 ho         1 3XO       0.522000
     34 H21          7.3980    -1.1830    -1.6500 ho         1 3XO       0.448000
     35 H8          -6.8220     1.1610     1.4840 h1         1 3XO       0.062700
     36 H9          -7.4130     1.1620    -0.1780 h1         1 3XO       0.062700
     37 H22          5.7450     2.3770    -1.3040 ho         1 3XO       0.505000
     38 H11         -8.7030    -0.4240     1.1420 h1         1 3XO       0.045950
     39 H10         -7.2390    -1.2320     1.7140 h1         1 3XO       0.045950
     40 H12         -5.8720    -2.5000    -0.0010 h1         1 3XO       0.045950
     41 H13         -6.4650    -2.5020    -1.6660 h1         1 3XO       0.045950
     42 H15         -6.0140    -0.1280    -1.9240 h1         1 3XO       0.062700
     43 H14         -4.5740    -0.9600    -1.3270 h1         1 3XO       0.062700
     44 H25          3.1860    -0.1220     4.5290 ho         1 3XO       0.505000
     45 H18         -9.5770    -2.4090     0.1450 h1         1 3XO       0.035367
     46 H17         -8.6160    -3.2950    -1.0390 h1         1 3XO       0.035367
     47 H16         -8.1850    -3.3680     0.6770 h1         1 3XO       0.035367
     48 H            3.4710     1.6020    -0.6350 h2         1 3XO       0.082700
     49 H7          -2.8250     0.1000    -1.5590 hn         1 3XO       0.495000
     50 H5          -0.8410    -0.6170     1.3730 ha         1 3XO       0.134000
     51 H4           1.5880    -0.8550     1.3320 ha         1 3XO       0.150000
     52 H3           5.1830     0.3400    -2.0460 h1         1 3XO       0.052700
     53 H2           5.4970    -1.5830    -0.6040 h1         1 3XO       0.060700
     54 H1           6.6400     0.3390     1.4650 h1         1 3XO       0.070700
     55 H19          4.0940    -1.3370     1.4490 h1         1 3XO       0.065700
     56 H23          5.0560     0.7820     3.4090 h1         1 3XO       0.037700
     57 H24          5.1390    -0.9620     3.6720 h1         1 3XO       0.037700
     58 O7           3.2150    -0.1830     3.5700 oh         1 3XO      -0.716000
     59 N           -2.3670     0.2310    -0.6710 nu         1 3XO      -0.812000
@<TRIPOS>BOND
     1     1    18 1   
     2     1    30 1   
     3     2     3 ar  
     4     2    21 ar  
     5     2    32 1   
     6     3    24 1   
     7     3    25 ar  
     8     4    29 1   
     9     4    33 1   
    10     5     7 2   
    11     5    10 1   
    12     5    59 1   
    13     6     7 1   
    14     6    12 1   
    15     6    16 1   
    16     7     8 1   
    17     8    10 1   
    18     8    20 2   
    19     9    14 1   
    20     9    15 1   
    21     9    17 1   
    22    10    19 2   
    23    11    28 1   
    24    11    34 1   
    25    12    14 1   
    26    12    35 1   
    27    12    36 1   
    28    13    27 1   
    29    13    37 1   
    30    14    38 1   
    31    14    39 1   
    32    15    16 1   
    33    15    40 1   
    34    15    41 1   
    35    16    42 1   
    36    16    43 1   
    37    17    45 1   
    38    17    46 1   
    39    17    47 1   
    40    18    26 1   
    41    18    27 1   
    42    18    48 1   
    43    21    22 ar  
    44    21    59 1   
    45    22    23 ar  
    46    22    50 1   
    47    23    25 ar  
    48    23    51 1   
    49    25    26 1   
    50    27    28 1   
    51    27    52 1   
    52    28    29 1   
    53    28    53 1   
    54    29    30 1   
    55    29    54 1   
    56    30    31 1   
    57    30    55 1   
    58    31    56 1   
    59    31    57 1   
    60    31    58 1   
    61    44    58 1   
    62    49    59 1   
@<TRIPOS>SUBSTRUCTURE
     1 3XO         1 TEMP              0 ****  ****    0 ROOT
