@<TRIPOS>MOLECULE
3XQ
   67    66     1     0     0
SMALL
abcg2


@<TRIPOS>ATOM
      1 C18         14.8070     0.4960     0.1490 c3         1 3XQ      -0.088100
      2 C10          4.6350     0.3820     0.0430 c3         1 3XQ      -0.074400
      3 C9           3.3740    -0.4590    -0.1120 c3         1 3XQ      -0.074400
      4 C17         13.5530    -0.3570     0.0150 c3         1 3XQ      -0.074400
      5 C11          5.9180    -0.4280    -0.0870 c3         1 3XQ      -0.074400
      6 C8           2.0890     0.3490     0.0210 c3         1 3XQ      -0.074400
      7 C24        -11.5610    -0.2120     0.3350 c3         1 3XQ       0.128600
      8 C16         12.2700     0.4590     0.1130 c3         1 3XQ      -0.075400
      9 C12          7.1800     0.4110     0.0640 c3         1 3XQ      -0.074400
     10 C7           0.8300    -0.4950    -0.1350 c3         1 3XQ      -0.074400
     11 C15         11.0070    -0.3800    -0.0270 c3         1 3XQ      -0.074400
     12 C13          8.4620    -0.4030    -0.0600 c3         1 3XQ      -0.074400
     13 C6          -0.4570     0.3090    -0.0000 c3         1 3XQ      -0.074400
     14 C14          9.7250     0.4350     0.0880 c3         1 3XQ      -0.074400
     15 C5          -1.7120    -0.5400    -0.1540 c3         1 3XQ      -0.074400
     16 C4          -3.0020     0.2580    -0.0170 c3         1 3XQ      -0.075400
     17 C3          -4.2470    -0.6050    -0.1730 c3         1 3XQ      -0.068400
     18 C2          -5.5250     0.2040    -0.0280 c3         1 3XQ      -0.137400
     19 C21         -9.1330    -0.5430    -0.0300 c3         1 3XQ       0.128600
     20 C1          -6.7780    -0.6160    -0.1730 c          1 3XQ       0.592100
     21 C22        -10.2040     0.4740     0.3240 c3         1 3XQ       0.164300
     22 O19         -6.8160    -1.7820    -0.4780 o          1 3XQ      -0.492000
     23 O23        -10.1720     1.5960    -0.5250 oh         1 3XQ      -0.626000
     24 O20         -7.8660     0.1060     0.0740 os         1 3XQ      -0.435100
     25 H1          14.8580     1.2500    -0.6380 hc         1 3XQ       0.031367
     26 H2          14.8240     1.0200     1.1070 hc         1 3XQ       0.031367
     27 H3          15.7140    -0.1070     0.0880 hc         1 3XQ       0.031367
     28 H4           4.6320     1.1810    -0.7080 hc         1 3XQ       0.037200
     29 H5           4.6200     0.8840     1.0170 hc         1 3XQ       0.037200
     30 H6           3.3880    -0.9590    -1.0870 hc         1 3XQ       0.037700
     31 H7           3.3770    -1.2580     0.6380 hc         1 3XQ       0.037700
     32 H8          13.5710    -0.8900    -0.9410 hc         1 3XQ       0.036700
     33 H9          13.5500    -1.1290     0.7910 hc         1 3XQ       0.036700
     34 H10          5.9200    -1.2260     0.6640 hc         1 3XQ       0.037200
     35 H11          5.9310    -0.9310    -1.0610 hc         1 3XQ       0.037200
     36 H12          2.0730     0.8490     0.9960 hc         1 3XQ       0.037200
     37 H13          2.0840     1.1490    -0.7290 hc         1 3XQ       0.037200
     38 H14        -11.7840    -0.5900    -0.6740 h1         1 3XQ       0.021700
     39 H15        -11.5080    -1.0870     0.9960 h1         1 3XQ       0.021700
     40 H16         12.2520     0.9870     1.0740 hc         1 3XQ       0.036700
     41 H17         12.2770     1.2380    -0.6580 hc         1 3XQ       0.036700
     42 H18          7.1800     1.2060    -0.6900 hc         1 3XQ       0.037200
     43 H19          7.1650     0.9170     1.0360 hc         1 3XQ       0.037200
     44 H20          0.8450    -0.9930    -1.1110 hc         1 3XQ       0.037700
     45 H21          0.8360    -1.2960     0.6120 hc         1 3XQ       0.037700
     46 H22         11.0210    -0.8990    -0.9920 hc         1 3XQ       0.036700
     47 H23         11.0060    -1.1650     0.7380 hc         1 3XQ       0.036700
     48 H24          8.4620    -1.1960     0.6960 hc         1 3XQ       0.036700
     49 H25          8.4760    -0.9110    -1.0310 hc         1 3XQ       0.036700
     50 H26         -0.4730     0.8080     0.9750 hc         1 3XQ       0.037700
     51 H27         -0.4660     1.1090    -0.7490 hc         1 3XQ       0.037700
     52 H28          9.7090     0.9490     1.0570 hc         1 3XQ       0.036700
     53 H29          9.7280     1.2250    -0.6710 hc         1 3XQ       0.036700
     54 H30         -1.6960    -1.0380    -1.1300 hc         1 3XQ       0.039700
     55 H31         -1.7020    -1.3410     0.5940 hc         1 3XQ       0.039700
     56 H32         -3.0190     0.7550     0.9590 hc         1 3XQ       0.038200
     57 H33         -3.0150     1.0590    -0.7650 hc         1 3XQ       0.038200
     58 H34         -4.2280    -1.0950    -1.1500 hc         1 3XQ       0.053700
     59 H35         -4.2290    -1.4040     0.5730 hc         1 3XQ       0.053700
     60 H36         -5.5530     0.7130     0.9410 hc         1 3XQ       0.073700
     61 H37         -5.5590     1.0030    -0.7770 hc         1 3XQ       0.073700
     62 H38         -9.1770    -1.3930     0.6550 h1         1 3XQ       0.050700
     63 H39         -9.2810    -0.9210    -1.0470 h1         1 3XQ       0.050700
     64 H40        -10.0020     0.8540     1.3310 h1         1 3XQ       0.098700
     65 H41        -13.3870     0.2740     0.7410 ho         1 3XQ       0.445000
     66 H42        -10.4190     1.3180    -1.4140 ho         1 3XQ       0.436000
     67 O25        -12.5310     0.7090     0.7690 oh         1 3XQ      -0.642000
@<TRIPOS>BOND
     1     1     4 1   
     2     1    25 1   
     3     1    26 1   
     4     1    27 1   
     5     2     3 1   
     6     2     5 1   
     7     2    28 1   
     8     2    29 1   
     9     3     6 1   
    10     3    30 1   
    11     3    31 1   
    12     4     8 1   
    13     4    32 1   
    14     4    33 1   
    15     5     9 1   
    16     5    34 1   
    17     5    35 1   
    18     6    10 1   
    19     6    36 1   
    20     6    37 1   
    21     7    21 1   
    22     7    38 1   
    23     7    39 1   
    24     7    67 1   
    25     8    11 1   
    26     8    40 1   
    27     8    41 1   
    28     9    12 1   
    29     9    42 1   
    30     9    43 1   
    31    10    13 1   
    32    10    44 1   
    33    10    45 1   
    34    11    14 1   
    35    11    46 1   
    36    11    47 1   
    37    12    14 1   
    38    12    48 1   
    39    12    49 1   
    40    13    15 1   
    41    13    50 1   
    42    13    51 1   
    43    14    52 1   
    44    14    53 1   
    45    15    16 1   
    46    15    54 1   
    47    15    55 1   
    48    16    17 1   
    49    16    56 1   
    50    16    57 1   
    51    17    18 1   
    52    17    58 1   
    53    17    59 1   
    54    18    20 1   
    55    18    60 1   
    56    18    61 1   
    57    19    21 1   
    58    19    24 1   
    59    19    62 1   
    60    19    63 1   
    61    20    22 2   
    62    20    24 1   
    63    21    23 1   
    64    21    64 1   
    65    23    66 1   
    66    65    67 1   
@<TRIPOS>SUBSTRUCTURE
     1 3XQ         1 TEMP              0 ****  ****    0 ROOT
