@<TRIPOS>MOLECULE
3XQ
   67    66     1     0     0
SMALL
No Charge or Current Charge


@<TRIPOS>ATOM
      1 C18         14.7260     0.2490     0.8450 c3         1 3XQ      -0.088100
      2 C10          4.5030     0.4560    -0.4150 c3         1 3XQ      -0.074400
      3 C9           3.1720    -0.3140    -0.2710 c3         1 3XQ      -0.074400
      4 C17         13.3980    -0.5180     0.9900 c3         1 3XQ      -0.074400
      5 C11          5.7280    -0.3650     0.0450 c3         1 3XQ      -0.074400
      6 C8           1.9470     0.5070    -0.7320 c3         1 3XQ      -0.074400
      7 C24        -10.5800    -0.9460     1.8580 c3         1 3XQ       0.128600
      8 C16         12.1720     0.3020     0.5300 c3         1 3XQ      -0.075400
      9 C12          7.0600     0.4050    -0.1000 c3         1 3XQ      -0.074400
     10 C7           0.6160    -0.2630    -0.5880 c3         1 3XQ      -0.074400
     11 C15         10.8410    -0.4670     0.6750 c3         1 3XQ      -0.074400
     12 C13          8.2850    -0.4160     0.3600 c3         1 3XQ      -0.074400
     13 C6          -0.6090     0.5570    -1.0480 c3         1 3XQ      -0.074400
     14 C14          9.6160     0.3540     0.2150 c3         1 3XQ      -0.074400
     15 C5          -1.9410    -0.2120    -0.9050 c3         1 3XQ      -0.074400
     16 C4          -3.1650     0.6080    -1.3650 c3         1 3XQ      -0.075400
     17 C3          -4.4970    -0.1620    -1.2220 c3         1 3XQ      -0.068400
     18 C2          -5.7230     0.6600    -1.6840 c3         1 3XQ      -0.137400
     19 C21         -8.8490    -0.5790    -0.0080 c3         1 3XQ       0.128600
     20 C1          -7.0210    -0.1350    -1.5180 c          1 3XQ       0.592100
     21 C22         -9.3560    -0.1200     1.3850 c3         1 3XQ       0.164300
     22 O19         -7.4380    -0.9320    -2.3480 o          1 3XQ      -0.492000
     23 O23         -9.7240     1.2730     1.3610 oh         1 3XQ      -0.626000
     24 O20         -7.6220     0.1170    -0.3130 os         1 3XQ      -0.435100
     25 H1          14.9030     0.5250    -0.2010 hc         1 3XQ       0.031367
     26 H2          14.7130     1.1650     1.4480 hc         1 3XQ       0.031367
     27 H3          15.5650    -0.3720     1.1830 hc         1 3XQ       0.031367
     28 H4           4.6390     0.7480    -1.4640 hc         1 3XQ       0.037200
     29 H5           4.4490     1.3820     0.1710 hc         1 3XQ       0.037200
     30 H6           3.2260    -1.2400    -0.8570 hc         1 3XQ       0.037700
     31 H7           3.0360    -0.6060     0.7780 hc         1 3XQ       0.037700
     32 H8          13.4550    -1.4440     0.4050 hc         1 3XQ       0.036700
     33 H9          13.2670    -0.8100     2.0390 hc         1 3XQ       0.036700
     34 H10          5.5930    -0.6560     1.0940 hc         1 3XQ       0.037200
     35 H11          5.7820    -1.2910    -0.5410 hc         1 3XQ       0.037200
     36 H12          1.8930     1.4330    -0.1460 hc         1 3XQ       0.037200
     37 H13          2.0830     0.7990    -1.7810 hc         1 3XQ       0.037200
     38 H14        -11.3750    -0.8870     1.1030 h1         1 3XQ       0.021700
     39 H15        -10.2860    -2.0000     1.9510 h1         1 3XQ       0.021700
     40 H16         12.1190     1.2280     1.1160 hc         1 3XQ       0.036700
     41 H17         12.3080     0.5940    -0.5190 hc         1 3XQ       0.036700
     42 H18          7.1950     0.6970    -1.1490 hc         1 3XQ       0.037200
     43 H19          7.0060     1.3310     0.4860 hc         1 3XQ       0.037200
     44 H20          0.6700    -1.1890    -1.1740 hc         1 3XQ       0.037700
     45 H21          0.4800    -0.5550     0.4610 hc         1 3XQ       0.037700
     46 H22         10.8940    -1.3930     0.0890 hc         1 3XQ       0.036700
     47 H23         10.7060    -0.7590     1.7240 hc         1 3XQ       0.036700
     48 H24          8.1490    -0.7070     1.4090 hc         1 3XQ       0.036700
     49 H25          8.3380    -1.3420    -0.2260 hc         1 3XQ       0.036700
     50 H26         -0.6640     1.4830    -0.4620 hc         1 3XQ       0.037700
     51 H27         -0.4730     0.8500    -2.0970 hc         1 3XQ       0.037700
     52 H28          9.5620     1.2800     0.8010 hc         1 3XQ       0.036700
     53 H29          9.7510     0.6450    -0.8340 hc         1 3XQ       0.036700
     54 H30         -1.8860    -1.1380    -1.4910 hc         1 3XQ       0.039700
     55 H31         -2.0760    -0.5050     0.1440 hc         1 3XQ       0.039700
     56 H32         -3.2190     1.5340    -0.7790 hc         1 3XQ       0.038200
     57 H33         -3.0290     0.9010    -2.4140 hc         1 3XQ       0.038200
     58 H34         -4.4420    -1.0890    -1.8070 hc         1 3XQ       0.053700
     59 H35         -4.6330    -0.4550    -0.1730 hc         1 3XQ       0.053700
     60 H36         -5.7730     1.5600    -1.0590 hc         1 3XQ       0.073700
     61 H37         -5.5990     0.9290    -2.7390 hc         1 3XQ       0.073700
     62 H38         -8.6780    -1.6630     0.0120 h1         1 3XQ       0.050700
     63 H39         -9.6180    -0.3680    -0.7630 h1         1 3XQ       0.050700
     64 H40         -8.5440    -0.2860     2.1080 h1         1 3XQ       0.098700
     65 H41        -11.7950    -1.0350     3.4030 ho         1 3XQ       0.445000
     66 H42        -10.3250     1.3850     2.1320 ho         1 3XQ       0.436000
     67 O25        -11.0550    -0.4510     3.1220 oh         1 3XQ      -0.642000
@<TRIPOS>BOND
     1     1     4 1   
     2     1    25 1   
     3     1    26 1   
     4     1    27 1   
     5     2     3 1   
     6     2     5 1   
     7     2    28 1   
     8     2    29 1   
     9     3     6 1   
    10     3    30 1   
    11     3    31 1   
    12     4     8 1   
    13     4    32 1   
    14     4    33 1   
    15     5     9 1   
    16     5    34 1   
    17     5    35 1   
    18     6    10 1   
    19     6    36 1   
    20     6    37 1   
    21     7    21 1   
    22     7    38 1   
    23     7    39 1   
    24     7    67 1   
    25     8    11 1   
    26     8    40 1   
    27     8    41 1   
    28     9    12 1   
    29     9    42 1   
    30     9    43 1   
    31    10    13 1   
    32    10    44 1   
    33    10    45 1   
    34    11    14 1   
    35    11    46 1   
    36    11    47 1   
    37    12    14 1   
    38    12    48 1   
    39    12    49 1   
    40    13    15 1   
    41    13    50 1   
    42    13    51 1   
    43    14    52 1   
    44    14    53 1   
    45    15    16 1   
    46    15    54 1   
    47    15    55 1   
    48    16    17 1   
    49    16    56 1   
    50    16    57 1   
    51    17    18 1   
    52    17    58 1   
    53    17    59 1   
    54    18    20 1   
    55    18    60 1   
    56    18    61 1   
    57    19    21 1   
    58    19    24 1   
    59    19    62 1   
    60    19    63 1   
    61    20    22 2   
    62    20    24 1   
    63    21    23 1   
    64    21    64 1   
    65    23    66 1   
    66    65    67 1   
@<TRIPOS>SUBSTRUCTURE
     1 3XQ         1 TEMP              0 ****  ****    0 ROOT
