@<TRIPOS>MOLECULE
3XR
   29    29     1     0     0
SMALL
abcg2


@<TRIPOS>ATOM
      1 CAA         -4.7760    -0.5130    -0.3680 c3         1 3XR      -0.177100
      2 CAJ         -3.3900    -0.6430     0.1940 c          1 3XR       0.604100
      3 OAB         -3.1340    -1.3050     1.1880 o          1 3XR      -0.594100
      4 NAH         -2.4140     0.0140    -0.4800 ns         1 3XR      -0.529900
      5 CAO         -1.0710     0.0450    -0.0130 c6         1 3XR       0.292700
      6 NAI         -0.4410    -1.3080    -0.1850 ny         1 3XR      -0.852000
      7 CAG          0.9910    -1.3830     0.2400 c6         1 3XR       0.139600
      8 CAN          1.8090    -0.3520    -0.5100 c6         1 3XR      -0.236700
      9 CAK          3.3020    -0.3950    -0.0970 c          1 3XR       0.747000
     10 OAD          4.0260     0.4810    -0.5980 o          1 3XR      -0.680500
     11 OAC          3.6400    -1.3080     0.6780 o          1 3XR      -0.680500
     12 CAL          1.2240     1.0390    -0.3260 c6         1 3XR       0.161300
     13 OAE          1.3400     1.3830     1.0330 oh         1 3XR      -0.627000
     14 CAM         -0.2370     1.0720    -0.7770 c6         1 3XR       0.097300
     15 OAF         -0.8400     2.3140    -0.5240 oh         1 3XR      -0.659000
     16 H1          -5.1400    -1.4970    -0.6640 hc         1 3XR       0.075367
     17 H2          -5.4420    -0.1400     0.4090 hc         1 3XR       0.075367
     18 H3          -4.8360     0.1520    -1.2270 hc         1 3XR       0.075367
     19 H4          -2.6430     0.5200    -1.3220 hn         1 3XR       0.342500
     20 H5          -1.0370     0.2460     1.0590 hx         1 3XR       0.139700
     21 H6          -0.9850    -1.9820     0.3600 hn         1 3XR       0.486000
     22 H8           1.0110    -1.2320     1.3170 hx         1 3XR       0.108700
     23 H9           1.3160    -2.3970     0.0290 hx         1 3XR       0.108700
     24 H10          1.7650    -0.5850    -1.5820 hc         1 3XR       0.048700
     25 H12          1.7840     1.7360    -0.9630 h1         1 3XR       0.086700
     26 H13          0.9430     2.2510     1.1630 ho         1 3XR       0.446000
     27 H14         -0.2700     0.8190    -1.8470 h1         1 3XR       0.041700
     28 H15         -0.5150     2.9500    -1.1700 ho         1 3XR       0.472000
     29 H7          -0.5300    -1.6070    -1.1580 hn         1 3XR       0.486000
@<TRIPOS>BOND
     1     1     2 1   
     2     1    16 1   
     3     1    17 1   
     4     1    18 1   
     5     2     3 2   
     6     2     4 1   
     7     4     5 1   
     8     4    19 1   
     9     5     6 1   
    10     5    14 1   
    11     5    20 1   
    12     6     7 1   
    13     6    21 1   
    14     6    29 1   
    15     7     8 1   
    16     7    22 1   
    17     7    23 1   
    18     8     9 1   
    19     8    12 1   
    20     8    24 1   
    21     9    10 1   
    22     9    11 1   
    23    12    13 1   
    24    12    14 1   
    25    12    25 1   
    26    13    26 1   
    27    14    15 1   
    28    14    27 1   
    29    15    28 1   
@<TRIPOS>SUBSTRUCTURE
     1 3XR         1 TEMP              0 ****  ****    0 ROOT
