@<TRIPOS>MOLECULE
3XR
   29    29     1     0     0
SMALL
No Charge or Current Charge


@<TRIPOS>ATOM
      1 CAA         -4.8150    -0.6150    -0.4980 c3         1 3XR      -0.177100
      2 CAJ         -3.4190    -0.8530     0.0540 c          1 3XR       0.604100
      3 OAB         -3.1550    -1.7720     0.8160 o          1 3XR      -0.594100
      4 NAH         -2.4620     0.0300    -0.3740 ns         1 3XR      -0.529900
      5 CAO         -1.0910     0.0670     0.0900 c6         1 3XR       0.292700
      6 NAI         -0.4230    -1.2740    -0.1630 ny         1 3XR      -0.852000
      7 CAG          1.0700    -1.4430     0.2130 c6         1 3XR       0.139600
      8 CAN          1.8300    -0.3190    -0.5140 c6         1 3XR      -0.236700
      9 CAK          3.3470    -0.4120    -0.2780 c          1 3XR       0.747000
     10 OAD          4.0610    -0.5180    -1.2650 o          1 3XR      -0.680500
     11 OAC          3.7620    -0.4930     0.8690 o          1 3XR      -0.680500
     12 CAL          1.2490     1.0880    -0.1900 c6         1 3XR       0.161300
     13 OAE          1.3680     1.3970     1.2060 oh         1 3XR      -0.627000
     14 CAM         -0.2530     1.1820    -0.6140 c6         1 3XR       0.097300
     15 OAF         -0.7790     2.4920    -0.3100 oh         1 3XR      -0.659000
     16 H1          -5.5400    -1.3520    -0.1360 hc         1 3XR       0.075367
     17 H2          -5.1220     0.4090    -0.2590 hc         1 3XR       0.075367
     18 H3          -4.7660    -0.5970    -1.5920 hc         1 3XR       0.075367
     19 H4          -2.7750     0.7840    -0.9740 hn         1 3XR       0.342500
     20 H5          -1.0890     0.2240     1.1780 hx         1 3XR       0.139700
     21 H6          -0.9930    -1.9900     0.3350 hn         1 3XR       0.486000
     22 H8           1.1550    -1.3520     1.3030 hx         1 3XR       0.108700
     23 H9           1.3970    -2.4450    -0.0940 hx         1 3XR       0.108700
     24 H10          1.6870    -0.4510    -1.5960 hc         1 3XR       0.048700
     25 H12          1.8120     1.8270    -0.7820 h1         1 3XR       0.086700
     26 H13          0.7750     2.1680     1.3500 ho         1 3XR       0.446000
     27 H14         -0.3100     1.0070    -1.6980 h1         1 3XR       0.041700
     28 H15         -0.5230     3.0920    -1.0480 ho         1 3XR       0.472000
     29 H7          -0.5470    -1.5050    -1.1680 hn         1 3XR       0.486000
@<TRIPOS>BOND
     1     1     2 1   
     2     1    16 1   
     3     1    17 1   
     4     1    18 1   
     5     2     3 2   
     6     2     4 1   
     7     4     5 1   
     8     4    19 1   
     9     5     6 1   
    10     5    14 1   
    11     5    20 1   
    12     6     7 1   
    13     6    21 1   
    14     6    29 1   
    15     7     8 1   
    16     7    22 1   
    17     7    23 1   
    18     8     9 1   
    19     8    12 1   
    20     8    24 1   
    21     9    10 1   
    22     9    11 1   
    23    12    13 1   
    24    12    14 1   
    25    12    25 1   
    26    13    26 1   
    27    14    15 1   
    28    14    27 1   
    29    15    28 1   
@<TRIPOS>SUBSTRUCTURE
     1 3XR         1 TEMP              0 ****  ****    0 ROOT
