@<TRIPOS>MOLECULE
3XS
   39    41     1     0     0
SMALL
No Charge or Current Charge


@<TRIPOS>ATOM
      1 O9          32.0510   -20.8520    26.1840 o          1 3XS      -0.712500
      2 C7          31.7620   -21.7470    25.4040 c          1 3XS       0.699600
      3 O8          31.1870   -22.7730    25.7370 o          1 3XS      -0.712500
      4 C3          32.1900   -21.6000    23.9570 ca         1 3XS      -0.077600
      5 C4          33.5490   -21.3250    23.6840 ca         1 3XS      -0.106000
      6 C5          34.0080   -21.2090    22.3630 ca         1 3XS      -0.112000
      7 C6          33.1140   -21.3670    21.2980 ca         1 3XS      -0.157000
      8 C1          31.7580   -21.6320    21.5500 ca         1 3XS      -0.088000
      9 C2          31.2730   -21.7410    22.8760 ca         1 3XS      -0.143900
     10 C11         29.8140   -22.0030    23.1300 ce         1 3XS       0.459800
     11 N12         28.9860   -22.2840    22.1580 n2         1 3XS      -0.468400
     12 N13         27.6350   -22.4790    22.3920 nu         1 3XS      -0.616200
     13 C14         26.6950   -22.7750    21.4370 cc         1 3XS       0.749300
     14 S18         27.0100   -22.9620    19.7310 ss         1 3XS      -0.038400
     15 C17         25.3090   -23.2790    19.5380 cc         1 3XS      -0.307000
     16 C16         24.6430   -23.2210    20.7470 cd         1 3XS       0.377500
     17 N15         25.4530   -22.9290    21.8400 nd         1 3XS      -0.762000
     18 C19         23.1840   -23.4440    20.9250 ca         1 3XS      -0.068500
     19 C24         22.5870   -23.3640    22.2080 ca         1 3XS      -0.159000
     20 C23         21.2010   -23.5750    22.3780 ca         1 3XS       0.125100
     21 O25         20.5820   -23.5060    23.6100 os         1 3XS      -0.361100
     22 C26         21.3050   -23.2130    24.8210 c3         1 3XS       0.148900
     23 C22         20.4020   -23.8680    21.2640 ca         1 3XS      -0.148000
     24 C21         20.9760   -23.9510    19.9860 ca         1 3XS      -0.089000
     25 C20         22.3540   -23.7410    19.8180 ca         1 3XS      -0.139000
     26 H2          34.2530   -21.2120    24.5050 ha         1 3XS       0.122000
     27 H3          35.0580   -21.0010    22.1680 ha         1 3XS       0.090000
     28 H4          33.4680   -21.2810    20.2730 ha         1 3XS       0.090000
     29 H5          31.0840   -21.7410    20.7030 ha         1 3XS       0.108000
     30 H6          29.4460   -21.8670    24.1490 h4         1 3XS       0.035800
     31 H7          27.1900   -22.4260    23.3130 hn         1 3XS       0.505000
     32 H8          24.9190   -23.4840    18.5520 h4         1 3XS       0.147000
     33 H9          23.2120   -23.1370    23.0660 ha         1 3XS       0.144000
     34 H10         20.6220   -23.2080    25.6790 h1         1 3XS       0.042367
     35 H11         22.0780   -23.9690    25.0070 h1         1 3XS       0.042367
     36 H12         21.7830   -22.2270    24.7610 h1         1 3XS       0.042367
     37 H13         19.3350   -24.0310    21.3910 ha         1 3XS       0.118000
     38 H14         20.3520   -24.1790    19.1250 ha         1 3XS       0.106000
     39 H15         22.7670   -23.8120    18.8160 ha         1 3XS       0.112000
@<TRIPOS>BOND
     1     1     2 1   
     2     2     3 1   
     3     2     4 1   
     4     4     5 ar  
     5     4     9 ar  
     6     5     6 ar  
     7     5    26 1   
     8     6     7 ar  
     9     6    27 1   
    10     7     8 ar  
    11     7    28 1   
    12     8     9 ar  
    13     8    29 1   
    14     9    10 1   
    15    10    11 2   
    16    10    30 1   
    17    11    12 1   
    18    12    13 1   
    19    12    31 1   
    20    13    14 1   
    21    13    17 2   
    22    14    15 1   
    23    15    16 2   
    24    15    32 1   
    25    16    17 1   
    26    16    18 1   
    27    18    19 ar  
    28    18    25 ar  
    29    19    20 ar  
    30    19    33 1   
    31    20    21 1   
    32    20    23 ar  
    33    21    22 1   
    34    22    34 1   
    35    22    35 1   
    36    22    36 1   
    37    23    24 ar  
    38    23    37 1   
    39    24    25 ar  
    40    24    38 1   
    41    25    39 1   
@<TRIPOS>SUBSTRUCTURE
     1 3XS         1 TEMP              0 ****  ****    0 ROOT
