@<TRIPOS>MOLECULE
3XS
   39    41     1     0     0
SMALL
abcg2


@<TRIPOS>ATOM
      1 O9          31.9990   -20.1780    25.8630 o          1 3XS      -0.712500
      2 C7          31.6860   -21.2700    25.3290 c          1 3XS       0.699600
      3 O8          31.0910   -22.2320    25.8760 o          1 3XS      -0.712500
      4 C3          32.0970   -21.4480    23.8710 ca         1 3XS      -0.077600
      5 C4          33.4370   -21.2420    23.5360 ca         1 3XS      -0.106000
      6 C5          33.8920   -21.4200    22.2370 ca         1 3XS      -0.112000
      7 C6          32.9920   -21.7780    21.2330 ca         1 3XS      -0.157000
      8 C1          31.6560   -21.9600    21.5420 ca         1 3XS      -0.088000
      9 C2          31.1890   -21.8120    22.8580 ca         1 3XS      -0.143900
     10 C11         29.7720   -21.9910    23.1690 ce         1 3XS       0.459800
     11 N12         28.9200   -22.3070    22.2660 n2         1 3XS      -0.468400
     12 N13         27.6300   -22.4450    22.6440 nu         1 3XS      -0.616200
     13 C14         26.6810   -22.7270    21.7140 cc         1 3XS       0.749300
     14 S18         27.1020   -22.9210    20.0290 ss         1 3XS      -0.038400
     15 C17         25.4240   -23.2100    19.7000 cc         1 3XS      -0.307000
     16 C16         24.6840   -23.1420    20.8450 cd         1 3XS       0.377500
     17 N15         25.4160   -22.8670    21.9900 nd         1 3XS      -0.762000
     18 C19         23.2290   -23.3390    20.9480 ca         1 3XS      -0.068500
     19 C24         22.6320   -23.4090    22.2130 ca         1 3XS      -0.159000
     20 C23         21.2580   -23.6020    22.3320 ca         1 3XS       0.125100
     21 O25         20.6040   -23.6830    23.5240 os         1 3XS      -0.361100
     22 C26         21.3720   -23.6040    24.7240 c3         1 3XS       0.148900
     23 C22         20.4650   -23.7230    21.1880 ca         1 3XS      -0.148000
     24 C21         21.0590   -23.6510    19.9370 ca         1 3XS      -0.089000
     25 C20         22.4300   -23.4590    19.8070 ca         1 3XS      -0.139000
     26 H2          34.1270   -20.9430    24.3140 ha         1 3XS       0.122000
     27 H3          34.9400   -21.2740    22.0040 ha         1 3XS       0.090000
     28 H4          33.3340   -21.9070    20.2140 ha         1 3XS       0.090000
     29 H5          30.9510   -22.2200    20.7640 ha         1 3XS       0.108000
     30 H6          29.4620   -21.8490    24.2030 h4         1 3XS       0.035800
     31 H7          27.3410   -22.3000    23.6070 hn         1 3XS       0.505000
     32 H8          25.1010   -23.4210    18.6950 h4         1 3XS       0.147000
     33 H9          23.2580   -23.3140    23.0850 ha         1 3XS       0.144000
     34 H10         20.6610   -23.7090    25.5400 h1         1 3XS       0.042367
     35 H11         22.1090   -24.4090    24.7720 h1         1 3XS       0.042367
     36 H12         21.8810   -22.6400    24.8030 h1         1 3XS       0.042367
     37 H13         19.3980   -23.8710    21.2970 ha         1 3XS       0.118000
     38 H14         20.4450   -23.7410    19.0500 ha         1 3XS       0.106000
     39 H15         22.8690   -23.3950    18.8210 ha         1 3XS       0.112000
@<TRIPOS>BOND
     1     1     2 1   
     2     2     3 1   
     3     2     4 1   
     4     4     5 ar  
     5     4     9 ar  
     6     5     6 ar  
     7     5    26 1   
     8     6     7 ar  
     9     6    27 1   
    10     7     8 ar  
    11     7    28 1   
    12     8     9 ar  
    13     8    29 1   
    14     9    10 1   
    15    10    11 2   
    16    10    30 1   
    17    11    12 1   
    18    12    13 1   
    19    12    31 1   
    20    13    14 1   
    21    13    17 2   
    22    14    15 1   
    23    15    16 2   
    24    15    32 1   
    25    16    17 1   
    26    16    18 1   
    27    18    19 ar  
    28    18    25 ar  
    29    19    20 ar  
    30    19    33 1   
    31    20    21 1   
    32    20    23 ar  
    33    21    22 1   
    34    22    34 1   
    35    22    35 1   
    36    22    36 1   
    37    23    24 ar  
    38    23    37 1   
    39    24    25 ar  
    40    24    38 1   
    41    25    39 1   
@<TRIPOS>SUBSTRUCTURE
     1 3XS         1 TEMP              0 ****  ****    0 ROOT
