@<TRIPOS>MOLECULE
3XT
   44    45     1     0     0
SMALL
No Charge or Current Charge


@<TRIPOS>ATOM
      1 C11          1.8050    -0.9080     1.6500 c6         1 3XT      -0.081400
      2 C10          1.2520    -2.3140     2.0160 c6         1 3XT      -0.074400
      3 C9           1.7570    -3.3900     1.0270 c6         1 3XT      -0.077400
      4 C8           1.4610    -2.9840    -0.4350 c6         1 3XT      -0.074400
      5 C1           4.4880     2.9960     0.7470 c2         1 3XT       0.393200
      6 C2           4.2980     2.1690    -0.5160 c3         1 3XT       0.039700
      7 N1           5.2700     2.6430     1.7080 n2         1 3XT      -0.753100
      8 C7           2.0350    -1.5740    -0.7420 c6         1 3XT      -0.081400
      9 C4           2.1310     0.9520    -0.0360 c          1 3XT       0.607100
     10 C6           1.4470    -0.4550     0.1930 c6         1 3XT       0.060400
     11 C15         -2.2650     0.0480    -0.8660 ca         1 3XT      -0.186600
     12 C16         -2.9120    -0.3780     0.3210 ca         1 3XT      -0.081000
     13 C17         -4.3140    -0.3480     0.4180 ca         1 3XT       0.080000
     14 C18         -5.1020     0.1060    -0.6650 ca         1 3XT       0.300000
     15 C19         -4.4650     0.5270    -1.8400 ca         1 3XT      -0.183000
     16 C20         -3.0630     0.4990    -1.9420 ca         1 3XT      -0.021000
     17 O14         -0.2100     0.3680    -2.0600 o          1 3XT      -0.598100
     18 N3           3.4910     0.9520    -0.2900 ns         1 3XT      -0.497900
     19 N12         -0.0360    -0.3970     0.0750 ns         1 3XT      -0.517900
     20 N21         -6.4780     0.1470    -0.5990 nv         1 3XT      -1.074000
     21 F22         -4.9010    -0.7610     1.5690 f          1 3XT      -0.185000
     22 H1           1.4190    -0.1710     2.3680 hc         1 3XT       0.063700
     23 H2           2.8960    -0.9090     1.7850 hc         1 3XT       0.063700
     24 H3           1.5620    -2.5790     3.0360 hc         1 3XT       0.040450
     25 H4           0.1540    -2.3040     2.0240 hc         1 3XT       0.040450
     26 H5           2.8390    -3.5310     1.1580 hc         1 3XT       0.043200
     27 H6           1.2870    -4.3570     1.2510 hc         1 3XT       0.043200
     28 H7           1.9020    -3.7210    -1.1190 hc         1 3XT       0.040450
     29 H8           0.3780    -3.0030    -0.6190 hc         1 3XT       0.040450
     30 H9           3.9260     3.9230     0.8170 h4         1 3XT      -0.013200
     31 H10          3.8090     2.7860    -1.2810 h1         1 3XT       0.076700
     32 H11          5.2810     1.8750    -0.9060 h1         1 3XT       0.076700
     33 H12          5.2320     3.3570     2.4520 hn         1 3XT       0.376400
     34 H13          3.1280    -1.6270    -0.6480 hc         1 3XT       0.063700
     35 H14          1.8410    -1.3250    -1.7930 hc         1 3XT       0.063700
     36 H15         -2.3510    -0.7360     1.1790 ha         1 3XT       0.128000
     37 H16         -5.0540     0.8780    -2.6830 ha         1 3XT       0.121000
     38 H17         -2.5970     0.8330    -2.8690 ha         1 3XT       0.136000
     39 H18          3.9620     0.0550    -0.2810 hn         1 3XT       0.313500
     40 H19         -0.5780    -0.6510     0.8880 hn         1 3XT       0.320500
     41 H20         -6.9370    -0.0210     0.2950 hn         1 3XT       0.469000
     42 H21         -7.0100     0.6370    -1.3160 hn         1 3XT       0.469000
     43 O5           1.5040     2.0050    -0.0190 o          1 3XT      -0.587100
     44 C13         -0.7580     0.0340    -1.0190 c          1 3XT       0.615700
@<TRIPOS>BOND
     1     1     2 1   
     2     1    10 1   
     3     1    22 1   
     4     1    23 1   
     5     2     3 1   
     6     2    24 1   
     7     2    25 1   
     8     3     4 1   
     9     3    26 1   
    10     3    27 1   
    11     4     8 1   
    12     4    28 1   
    13     4    29 1   
    14     5     6 1   
    15     5     7 2   
    16     5    30 1   
    17     6    18 1   
    18     6    31 1   
    19     6    32 1   
    20     7    33 1   
    21     8    10 1   
    22     8    34 1   
    23     8    35 1   
    24     9    10 1   
    25     9    18 1   
    26     9    43 2   
    27    10    19 1   
    28    11    12 ar  
    29    11    16 ar  
    30    11    44 1   
    31    12    13 ar  
    32    12    36 1   
    33    13    14 ar  
    34    13    21 1   
    35    14    15 ar  
    36    14    20 1   
    37    15    16 ar  
    38    15    37 1   
    39    16    38 1   
    40    17    44 2   
    41    18    39 1   
    42    19    40 1   
    43    19    44 1   
    44    20    41 1   
    45    20    42 1   
@<TRIPOS>SUBSTRUCTURE
     1 3XT         1 TEMP              0 ****  ****    0 ROOT
