@<TRIPOS>MOLECULE
3XT
   44    45     1     0     0
SMALL
bcc


@<TRIPOS>ATOM
      1 C11          2.3900    -1.7010     1.3180 c6         1 3XT      -0.081400
      2 C10          1.6950    -3.0280     1.6100 c6         1 3XT      -0.074400
      3 C9           1.7870    -3.9870     0.4300 c6         1 3XT      -0.077400
      4 C8           1.2780    -3.3320    -0.8490 c6         1 3XT      -0.074400
      5 C1           2.3620     3.4690    -0.3730 c2         1 3XT       0.393200
      6 C2           3.1570     2.5300     0.4890 c3         1 3XT       0.039700
      7 N1           2.1230     4.6530    -0.0040 n2         1 3XT      -0.753100
      8 C7           2.0160    -2.0300    -1.1380 c6         1 3XT      -0.081400
      9 C4           2.7550     0.2140    -0.2240 c          1 3XT       0.674100
     10 C6           1.8880    -1.0340     0.0220 c6         1 3XT       0.060400
     11 C15         -1.6320     0.3030    -0.3770 ca         1 3XT      -0.186600
     12 C16         -2.3920    -0.6230     0.3410 ca         1 3XT      -0.099000
     13 C17         -3.7310    -0.4000     0.5380 ca         1 3XT       0.044900
     14 C18         -4.3990     0.7300     0.0530 ca         1 3XT       0.161600
     15 C19         -3.6220     1.6440    -0.6700 ca         1 3XT      -0.201000
     16 C20         -2.2740     1.4300    -0.8860 ca         1 3XT      -0.039000
     17 O14          0.3530     0.6250    -1.6240 o          1 3XT      -0.598100
     18 N3           2.5100     1.2450     0.6060 ns         1 3XT      -0.564900
     19 N12          0.5020    -0.6440     0.2290 ns         1 3XT      -0.584900
     20 N21         -5.7210     0.9440     0.3150 nv         1 3XT      -0.825200
     21 F22         -4.4560    -1.3090     1.2200 f          1 3XT      -0.149900
     22 H1           2.2700    -1.0160     2.1620 hc         1 3XT       0.063700
     23 H2           3.4640    -1.8750     1.2080 hc         1 3XT       0.063700
     24 H3           2.1490    -3.4710     2.5000 hc         1 3XT       0.040450
     25 H4           0.6430    -2.8650     1.8670 hc         1 3XT       0.040450
     26 H5           2.8290    -4.2900     0.2900 hc         1 3XT       0.043200
     27 H6           1.2240    -4.8980     0.6440 hc         1 3XT       0.043200
     28 H7           1.4050    -4.0100    -1.6960 hc         1 3XT       0.040450
     29 H8           0.2020    -3.1460    -0.7690 hc         1 3XT       0.040450
     30 H9           2.0180     3.0470    -1.3210 h4         1 3XT      -0.013200
     31 H10          4.1480     2.3900     0.0540 h1         1 3XT       0.076700
     32 H11          3.2910     2.9650     1.4790 h1         1 3XT       0.076700
     33 H12          1.5890     5.1470    -0.7140 hn         1 3XT       0.376400
     34 H13          3.0750    -2.2490    -1.2920 hc         1 3XT       0.063700
     35 H14          1.6560    -1.5810    -2.0640 hc         1 3XT       0.063700
     36 H15         -1.9660    -1.5420     0.7270 ha         1 3XT       0.146000
     37 H16         -4.0960     2.5320    -1.0690 ha         1 3XT       0.139000
     38 H17         -1.7110     2.1570    -1.4550 ha         1 3XT       0.154000
     39 H18          1.7130     1.1920     1.2200 hn         1 3XT       0.313500
     40 H19          0.0470    -0.9380     1.0780 hn         1 3XT       0.320500
     41 H20         -6.2950     0.1440     0.5280 hn         1 3XT       0.413800
     42 H21         -6.1870     1.6180    -0.2690 hn         1 3XT       0.413800
     43 O5           3.6560     0.2240    -1.0460 o          1 3XT      -0.587100
     44 C13         -0.1870     0.1120    -0.6530 c          1 3XT       0.682700
@<TRIPOS>BOND
     1     1     2 1   
     2     1    10 1   
     3     1    22 1   
     4     1    23 1   
     5     2     3 1   
     6     2    24 1   
     7     2    25 1   
     8     3     4 1   
     9     3    26 1   
    10     3    27 1   
    11     4     8 1   
    12     4    28 1   
    13     4    29 1   
    14     5     6 1   
    15     5     7 2   
    16     5    30 1   
    17     6    18 1   
    18     6    31 1   
    19     6    32 1   
    20     7    33 1   
    21     8    10 1   
    22     8    34 1   
    23     8    35 1   
    24     9    10 1   
    25     9    18 1   
    26     9    43 2   
    27    10    19 1   
    28    11    12 ar  
    29    11    16 ar  
    30    11    44 1   
    31    12    13 ar  
    32    12    36 1   
    33    13    14 ar  
    34    13    21 1   
    35    14    15 ar  
    36    14    20 1   
    37    15    16 ar  
    38    15    37 1   
    39    16    38 1   
    40    17    44 2   
    41    18    39 1   
    42    19    40 1   
    43    19    44 1   
    44    20    41 1   
    45    20    42 1   
@<TRIPOS>SUBSTRUCTURE
     1 3XT         1 TEMP              0 ****  ****    0 ROOT
