@<TRIPOS>MOLECULE
3XU
  149   148     1     0     0
SMALL
bcc


@<TRIPOS>ATOM
      1 O1          -1.6610    -1.0440     1.9030 o          1 3XU      -0.611100
      2 N           -2.5530     0.5480     0.5700 ns         1 3XU      -0.572900
      3 C1          -4.7610    -1.6740     0.4400 c2         1 3XU      -0.202200
      4 O5          -5.8820     4.7000     0.8860 o          1 3XU      -0.803000
      5 P           -4.4710     4.4060     0.4720 p5         1 3XU       1.382800
      6 O3          -3.3210     4.9950     1.2230 o          1 3XU      -0.803000
      7 O4          -4.2830     4.7020    -1.1370 os         1 3XU      -0.566200
      8 C42         -5.1070     5.6140    -1.8220 c3         1 3XU       0.194400
      9 C43         -5.6120     5.0680    -3.1400 c3         1 3XU       0.113800
     10 N1          -6.6130     3.9400    -3.0970 n4         1 3XU      -0.601800
     11 C46         -7.7150     4.2290    -2.1390 c3         1 3XU       0.103433
     12 C45         -7.1870     3.8090    -4.4660 c3         1 3XU       0.103433
     13 C44         -5.9690     2.6410    -2.7380 c3         1 3XU       0.103433
     14 C41         -4.2890     1.9910     1.4800 c3         1 3XU       0.184400
     15 C16         -3.8780     0.5660     1.1500 c3         1 3XU       0.075700
     16 C           -4.8930    -0.1890     0.2590 c3         1 3XU       0.178300
     17 O           -4.7800     0.1530    -1.1060 oh         1 3XU      -0.606800
     18 C3          -7.0470    -2.1640     1.4380 c3         1 3XU      -0.047200
     19 C4          -8.1420    -2.8870     0.6520 c3         1 3XU      -0.072400
     20 C5          -9.5410    -2.5060     1.1170 c3         1 3XU      -0.076400
     21 C6         -10.6490    -3.2290     0.3630 c3         1 3XU      -0.073400
     22 C7         -12.0440    -2.8050     0.8040 c3         1 3XU      -0.075400
     23 C8         -13.1610    -3.5290     0.0630 c3         1 3XU      -0.073400
     24 C9         -14.5530    -3.0910     0.5010 c3         1 3XU      -0.074400
     25 C10        -15.6750    -3.8140    -0.2330 c3         1 3XU      -0.074400
     26 C11        -17.0640    -3.3700     0.2070 c3         1 3XU      -0.074400
     27 C12        -18.1890    -4.0930    -0.5240 c3         1 3XU      -0.074400
     28 C13        -19.5770    -3.6470    -0.0820 c3         1 3XU      -0.075400
     29 C14        -20.7050    -4.3690    -0.8090 c3         1 3XU      -0.074400
     30 C15        -22.0860    -3.9160    -0.3580 c3         1 3XU      -0.088100
     31 C17         -1.5380    -0.2280     1.0020 c          1 3XU       0.665100
     32 C18         -0.2300    -0.0370     0.2650 c3         1 3XU      -0.156400
     33 C19          0.9800    -0.0550     1.1920 c3         1 3XU      -0.067400
     34 C20          2.2910     0.0820     0.4290 c3         1 3XU      -0.075400
     35 C21          3.5110     0.0720     1.3420 c3         1 3XU      -0.074400
     36 C22          4.8270     0.2020     0.5860 c3         1 3XU      -0.073400
     37 C23          6.0460     0.1940     1.5000 c3         1 3XU      -0.074400
     38 C24          7.3640     0.3280     0.7470 c3         1 3XU      -0.074400
     39 C25          8.5830     0.3160     1.6630 c3         1 3XU      -0.074400
     40 C26          9.9010     0.4610     0.9140 c3         1 3XU      -0.074400
     41 C27         11.1180     0.4360     1.8310 c3         1 3XU      -0.074400
     42 C28         12.4380     0.6020     1.0890 c3         1 3XU      -0.074400
     43 C29         13.6490     0.5520     2.0100 c3         1 3XU      -0.073400
     44 C30         14.9730     0.7560     1.2720 c3         1 3XU      -0.043200
     45 C31         16.1430     0.7290     2.2050 c2         1 3XU      -0.165200
     46 C32         17.2090    -0.0690     2.1600 c2         1 3XU      -0.166200
     47 C33         17.5430    -1.1070     1.1340 c3         1 3XU      -0.042200
     48 C34         18.8790    -0.8180     0.4480 c3         1 3XU      -0.073400
     49 C35         19.2580    -1.8670    -0.5890 c3         1 3XU      -0.075400
     50 C36         20.6030    -1.5920    -1.2500 c3         1 3XU      -0.074400
     51 C37         20.9730    -2.6130    -2.3180 c3         1 3XU      -0.074400
     52 C38         22.3240    -2.3400    -2.9660 c3         1 3XU      -0.075400
     53 C39         22.6880    -3.3440    -4.0530 c3         1 3XU      -0.075400
     54 C40         24.0410    -3.0610    -4.6900 c3         1 3XU      -0.088100
     55 H1          -2.3500     1.2570    -0.1180 hn         1 3XU       0.328500
     56 H2          -3.8160    -2.1020     0.1150 ha         1 3XU       0.126000
     57 H4          -5.9360     5.9650    -1.2040 h1         1 3XU       0.060700
     58 H5          -4.5270     6.5010    -2.0940 h1         1 3XU       0.060700
     59 H6          -6.1040     5.8900    -3.6610 hx         1 3XU       0.077700
     60 H7          -4.7860     4.7250    -3.7640 hx         1 3XU       0.077700
     61 H8          -8.1480     5.1990    -2.3730 hx         1 3XU       0.095700
     62 H9          -8.4730     3.4570    -2.2410 hx         1 3XU       0.095700
     63 H10         -7.3330     4.2280    -1.1220 hx         1 3XU       0.095700
     64 H11         -6.3810     3.6310    -5.1750 hx         1 3XU       0.095700
     65 H12         -7.8800     2.9740    -4.4840 hx         1 3XU       0.095700
     66 H13         -7.7090     4.7260    -4.7270 hx         1 3XU       0.095700
     67 H14         -5.5770     2.6700    -1.7310 hx         1 3XU       0.095700
     68 H15         -6.7170     1.8570    -2.8120 hx         1 3XU       0.095700
     69 H16         -5.1630     2.4450    -3.4400 hx         1 3XU       0.095700
     70 H17         -3.6070     2.3850     2.2410 h1         1 3XU       0.042200
     71 H18         -5.2940     1.9730     1.9170 h1         1 3XU       0.042200
     72 H19         -3.8300     0.0390     2.1050 h1         1 3XU       0.084700
     73 H20         -5.8910     0.1350     0.5620 h1         1 3XU       0.074700
     74 H21         -3.9070    -0.1160    -1.4130 ho         1 3XU       0.402000
     75 H22         -5.4210    -3.5570     0.9920 ha         1 3XU       0.118000
     76 H23         -7.1250    -2.4500     2.4930 hc         1 3XU       0.046700
     77 H24         -7.2320    -1.0880     1.4040 hc         1 3XU       0.046700
     78 H25         -8.0360    -2.6530    -0.4120 hc         1 3XU       0.038700
     79 H26         -8.0040    -3.9700     0.7420 hc         1 3XU       0.038700
     80 H27         -9.6370    -2.7120     2.1890 hc         1 3XU       0.038200
     81 H28         -9.6710    -1.4240     1.0050 hc         1 3XU       0.038200
     82 H29        -10.5380    -3.0460    -0.7120 hc         1 3XU       0.036200
     83 H30        -10.5370    -4.3110     0.4990 hc         1 3XU       0.036200
     84 H31        -12.1520    -2.9790     1.8810 hc         1 3XU       0.037700
     85 H32        -12.1540    -1.7250     0.6610 hc         1 3XU       0.037700
     86 H33        -13.0510    -3.3610    -1.0140 hc         1 3XU       0.036700
     87 H34        -13.0570    -4.6090     0.2130 hc         1 3XU       0.036700
     88 H35        -14.6610    -3.2550     1.5790 hc         1 3XU       0.037200
     89 H36        -14.6570    -2.0110     0.3490 hc         1 3XU       0.037200
     90 H37        -15.5670    -3.6510    -1.3120 hc         1 3XU       0.036700
     91 H38        -15.5730    -4.8940    -0.0790 hc         1 3XU       0.036700
     92 H39        -17.1710    -3.5310     1.2860 hc         1 3XU       0.037700
     93 H40        -17.1660    -2.2900     0.0510 hc         1 3XU       0.037700
     94 H41        -18.0840    -3.9330    -1.6030 hc         1 3XU       0.036700
     95 H42        -18.0880    -5.1730    -0.3680 hc         1 3XU       0.036700
     96 H43        -19.6820    -3.8060     0.9980 hc         1 3XU       0.037200
     97 H44        -19.6780    -2.5670    -0.2380 hc         1 3XU       0.037200
     98 H45        -20.6000    -4.2100    -1.8870 hc         1 3XU       0.036200
     99 H46        -20.6030    -5.4480    -0.6520 hc         1 3XU       0.036200
    100 H47        -22.2300    -4.0930     0.7090 hc         1 3XU       0.031700
    101 H48        -22.2270    -2.8480    -0.5350 hc         1 3XU       0.031700
    102 H49        -22.8770    -4.4450    -0.8900 hc         1 3XU       0.031700
    103 H50         -0.1440    -0.8530    -0.4610 hc         1 3XU       0.052700
    104 H52          0.8950     0.7580     1.9200 hc         1 3XU       0.056700
    105 H54          2.3750    -0.7320    -0.2990 hc         1 3XU       0.034700
    106 H55          2.2810     1.0100    -0.1530 hc         1 3XU       0.034700
    107 H56          3.4260     0.8880     2.0680 hc         1 3XU       0.041200
    108 H57          3.5170    -0.8550     1.9270 hc         1 3XU       0.041200
    109 H58          4.9120    -0.6150    -0.1390 hc         1 3XU       0.035700
    110 H59          4.8190     1.1280    -0.0000 hc         1 3XU       0.035700
    111 H60          5.9590     1.0090     2.2270 hc         1 3XU       0.038700
    112 H61          6.0550    -0.7330     2.0850 hc         1 3XU       0.038700
    113 H62          7.4510    -0.4850     0.0180 hc         1 3XU       0.036200
    114 H63          7.3570     1.2570     0.1650 hc         1 3XU       0.036200
    115 H64          8.4920     1.1240     2.3970 hc         1 3XU       0.038200
    116 H65          8.5930    -0.6160     2.2390 hc         1 3XU       0.038200
    117 H66          9.9900    -0.3420     0.1730 hc         1 3XU       0.036700
    118 H67          9.8950     1.3980     0.3450 hc         1 3XU       0.036700
    119 H68         11.0220     1.2290     2.5810 hc         1 3XU       0.037700
    120 H69         11.1300    -0.5080     2.3890 hc         1 3XU       0.037700
    121 H70         12.5290    -0.1800     0.3270 hc         1 3XU       0.036700
    122 H71         12.4320     1.5550     0.5470 hc         1 3XU       0.036700
    123 H72         13.5480     1.3180     2.7870 hc         1 3XU       0.039200
    124 H73         13.6710    -0.4100     2.5330 hc         1 3XU       0.039200
    125 H74         15.0740     0.0010     0.4890 hc         1 3XU       0.044200
    126 H75         14.9410     1.7260     0.7620 hc         1 3XU       0.044200
    127 H76         16.0890     1.4430     3.0230 ha         1 3XU       0.114000
    128 H77         17.9540     0.0500     2.9440 ha         1 3XU       0.114000
    129 H78         17.6070    -2.0880     1.6200 hc         1 3XU       0.044200
    130 H79         16.7570    -1.1910     0.3800 hc         1 3XU       0.044200
    131 H80         18.8330     0.1660    -0.0300 hc         1 3XU       0.039200
    132 H81         19.6670    -0.7520     1.2060 hc         1 3XU       0.039200
    133 H82         19.2790    -2.8560    -0.1180 hc         1 3XU       0.036700
    134 H83         18.4780    -1.9150    -1.3580 hc         1 3XU       0.036700
    135 H84         20.5890    -0.5910    -1.6970 hc         1 3XU       0.037200
    136 H85         21.3840    -1.5680    -0.4820 hc         1 3XU       0.037200
    137 H86         20.9780    -3.6160    -1.8770 hc         1 3XU       0.036700
    138 H87         20.1960    -2.6270    -3.0910 hc         1 3XU       0.036700
    139 H88         22.3250    -1.3300    -3.3920 hc         1 3XU       0.036700
    140 H89         23.1040    -2.3430    -2.1960 hc         1 3XU       0.036700
    141 H90         22.6850    -4.3540    -3.6300 hc         1 3XU       0.036700
    142 H91         21.9120    -3.3390    -4.8250 hc         1 3XU       0.036700
    143 H92         24.8420    -3.1030    -3.9500 hc         1 3XU       0.031367
    144 H93         24.2770    -3.7820    -5.4730 hc         1 3XU       0.031367
    145 H94         24.0630    -2.0660    -5.1400 hc         1 3XU       0.031367
    146 H51         -0.2420     0.8870    -0.3170 hc         1 3XU       0.052700
    147 H53          0.9880    -0.9850     1.7660 hc         1 3XU       0.056700
    148 O2          -4.2560     2.7860     0.3140 os         1 3XU      -0.592200
    149 C2          -5.6770    -2.5010     0.9420 c2         1 3XU      -0.145200
@<TRIPOS>BOND
     1     1    31 2   
     2     2    15 1   
     3     2    31 1   
     4     2    55 1   
     5     3    16 1   
     6     3    56 1   
     7     3   149 2   
     8     4     5 1   
     9     5     6 1   
    10     5     7 1   
    11     5   148 1   
    12     7     8 1   
    13     8     9 1   
    14     8    57 1   
    15     8    58 1   
    16     9    10 1   
    17     9    59 1   
    18     9    60 1   
    19    10    11 1   
    20    10    12 1   
    21    10    13 1   
    22    11    61 1   
    23    11    62 1   
    24    11    63 1   
    25    12    64 1   
    26    12    65 1   
    27    12    66 1   
    28    13    67 1   
    29    13    68 1   
    30    13    69 1   
    31    14    15 1   
    32    14    70 1   
    33    14    71 1   
    34    14   148 1   
    35    15    16 1   
    36    15    72 1   
    37    16    17 1   
    38    16    73 1   
    39    17    74 1   
    40    18    19 1   
    41    18    76 1   
    42    18    77 1   
    43    18   149 1   
    44    19    20 1   
    45    19    78 1   
    46    19    79 1   
    47    20    21 1   
    48    20    80 1   
    49    20    81 1   
    50    21    22 1   
    51    21    82 1   
    52    21    83 1   
    53    22    23 1   
    54    22    84 1   
    55    22    85 1   
    56    23    24 1   
    57    23    86 1   
    58    23    87 1   
    59    24    25 1   
    60    24    88 1   
    61    24    89 1   
    62    25    26 1   
    63    25    90 1   
    64    25    91 1   
    65    26    27 1   
    66    26    92 1   
    67    26    93 1   
    68    27    28 1   
    69    27    94 1   
    70    27    95 1   
    71    28    29 1   
    72    28    96 1   
    73    28    97 1   
    74    29    30 1   
    75    29    98 1   
    76    29    99 1   
    77    30   100 1   
    78    30   101 1   
    79    30   102 1   
    80    31    32 1   
    81    32    33 1   
    82    32   103 1   
    83    32   146 1   
    84    33    34 1   
    85    33   104 1   
    86    33   147 1   
    87    34    35 1   
    88    34   105 1   
    89    34   106 1   
    90    35    36 1   
    91    35   107 1   
    92    35   108 1   
    93    36    37 1   
    94    36   109 1   
    95    36   110 1   
    96    37    38 1   
    97    37   111 1   
    98    37   112 1   
    99    38    39 1   
   100    38   113 1   
   101    38   114 1   
   102    39    40 1   
   103    39   115 1   
   104    39   116 1   
   105    40    41 1   
   106    40   117 1   
   107    40   118 1   
   108    41    42 1   
   109    41   119 1   
   110    41   120 1   
   111    42    43 1   
   112    42   121 1   
   113    42   122 1   
   114    43    44 1   
   115    43   123 1   
   116    43   124 1   
   117    44    45 1   
   118    44   125 1   
   119    44   126 1   
   120    45    46 2   
   121    45   127 1   
   122    46    47 1   
   123    46   128 1   
   124    47    48 1   
   125    47   129 1   
   126    47   130 1   
   127    48    49 1   
   128    48   131 1   
   129    48   132 1   
   130    49    50 1   
   131    49   133 1   
   132    49   134 1   
   133    50    51 1   
   134    50   135 1   
   135    50   136 1   
   136    51    52 1   
   137    51   137 1   
   138    51   138 1   
   139    52    53 1   
   140    52   139 1   
   141    52   140 1   
   142    53    54 1   
   143    53   141 1   
   144    53   142 1   
   145    54   143 1   
   146    54   144 1   
   147    54   145 1   
   148    75   149 1   
@<TRIPOS>SUBSTRUCTURE
     1 3XU         1 TEMP              0 ****  ****    0 ROOT
