@<TRIPOS>MOLECULE
3XU
  149   148     1     0     0
SMALL
No Charge or Current Charge


@<TRIPOS>ATOM
      1 O1          -1.8190    -2.6760    -0.1980 o          1 3XU      -0.611100
      2 N           -2.3300    -0.7480    -1.3020 ns         1 3XU      -0.505900
      3 C1          -4.4440    -2.5890    -2.5040 c2         1 3XU      -0.252200
      4 O5          -2.1230     3.1140    -0.4080 o          1 3XU      -0.803000
      5 P           -2.6050     2.5540    -1.7000 p5         1 3XU       1.382800
      6 O3          -1.5790     1.7310    -2.3970 o          1 3XU      -0.803000
      7 O4          -3.1620     3.7260    -2.6570 os         1 3XU      -0.589400
      8 C42         -3.8640     4.8710    -2.1380 c3         1 3XU       0.217600
      9 C43         -5.0820     4.4340    -1.2800 c3         1 3XU       0.085600
     10 N1          -6.0030     5.5220    -0.6990 n4         1 3XU      -0.489000
     11 C46         -6.6510     6.3360    -1.8290 c3         1 3XU       0.075233
     12 C45         -7.1090     4.8410     0.1180 c3         1 3XU       0.075233
     13 C44         -5.2090     6.4590     0.2240 c3         1 3XU       0.075233
     14 C41         -4.1530     0.7700    -0.4700 c3         1 3XU       0.207600
     15 C16         -3.7620    -0.6560    -0.9560 c3         1 3XU       0.075700
     16 C           -4.6880    -1.1450    -2.1130 c3         1 3XU       0.201500
     17 O           -4.5020    -0.3200    -3.2650 oh         1 3XU      -0.669000
     18 C3          -6.1190    -3.6870    -0.9130 c3         1 3XU      -0.047200
     19 C4          -7.5470    -3.7010    -1.4970 c3         1 3XU      -0.072400
     20 C5          -8.6490    -3.6840    -0.4150 c3         1 3XU      -0.076400
     21 C6         -10.0760    -3.6810    -1.0080 c3         1 3XU      -0.073400
     22 C7         -11.1800    -3.6510     0.0720 c3         1 3XU      -0.075400
     23 C8         -12.6050    -3.6350    -0.5230 c3         1 3XU      -0.073400
     24 C9         -13.7110    -3.5960     0.5540 c3         1 3XU      -0.074400
     25 C10        -15.1350    -3.5670    -0.0440 c3         1 3XU      -0.074400
     26 C11        -16.2430    -3.5200     1.0320 c3         1 3XU      -0.074400
     27 C12        -17.6660    -3.4820     0.4330 c3         1 3XU      -0.074400
     28 C13        -18.7740    -3.4270     1.5070 c3         1 3XU      -0.075400
     29 C14        -20.1960    -3.3860     0.9070 c3         1 3XU      -0.074400
     30 C15        -21.3030    -3.3280     1.9780 c3         1 3XU      -0.088100
     31 C17         -1.4690    -1.7430    -0.9060 c          1 3XU       0.598100
     32 C18         -0.0420    -1.6070    -1.4480 c3         1 3XU      -0.156400
     33 C19          0.9490    -1.1760    -0.3410 c3         1 3XU      -0.067400
     34 C20          2.3850    -0.9640    -0.8700 c3         1 3XU      -0.075400
     35 C21          3.3880    -0.5700     0.2370 c3         1 3XU      -0.074400
     36 C22          4.8120    -0.3160    -0.3050 c3         1 3XU      -0.073400
     37 C23          5.8300     0.0350     0.8030 c3         1 3XU      -0.074400
     38 C24          7.2420     0.3290     0.2500 c3         1 3XU      -0.074400
     39 C25          8.2750     0.6370     1.3560 c3         1 3XU      -0.074400
     40 C26          9.6760     0.9670     0.7960 c3         1 3XU      -0.074400
     41 C27         10.7250     1.2280     1.8990 c3         1 3XU      -0.074400
     42 C28         12.1170     1.5860     1.3330 c3         1 3XU      -0.074400
     43 C29         13.1830     1.7950     2.4310 c3         1 3XU      -0.073400
     44 C30         14.5660     2.1750     1.8660 c3         1 3XU      -0.043200
     45 C31         15.6120     2.3160     2.9580 c2         1 3XU      -0.215200
     46 C32         16.5580     1.4200     3.2880 c2         1 3XU      -0.216200
     47 C33         16.7670     0.0500     2.6690 c3         1 3XU      -0.042200
     48 C34         17.7710     0.0880     1.4980 c3         1 3XU      -0.073400
     49 C35         17.9720    -1.2880     0.8260 c3         1 3XU      -0.075400
     50 C36         18.9620    -1.2430    -0.3590 c3         1 3XU      -0.074400
     51 C37         19.1550    -2.6170    -1.0370 c3         1 3XU      -0.074400
     52 C38         20.1360    -2.5700    -2.2290 c3         1 3XU      -0.075400
     53 C39         20.3290    -3.9430    -2.9090 c3         1 3XU      -0.075400
     54 C40         21.3040    -3.8940    -4.1010 c3         1 3XU      -0.088100
     55 H1          -1.9310    -0.0050    -1.8760 hn         1 3XU       0.328500
     56 H2          -3.6840    -2.7110    -3.2770 ha         1 3XU       0.176000
     57 H4          -3.1930     5.4860    -1.5250 h1         1 3XU       0.060700
     58 H5          -4.2190     5.4960    -2.9680 h1         1 3XU       0.060700
     59 H6          -5.7040     3.7760    -1.8900 hx         1 3XU       0.077700
     60 H7          -4.7120     3.8500    -0.4350 hx         1 3XU       0.077700
     61 H8          -7.2040     5.6630    -2.4880 hx         1 3XU       0.095700
     62 H9          -7.3340     7.0700    -1.3980 hx         1 3XU       0.095700
     63 H10         -5.8750     6.8520    -2.3980 hx         1 3XU       0.095700
     64 H11         -6.6570     4.2650     0.9280 hx         1 3XU       0.095700
     65 H12         -7.7710     5.6030     0.5350 hx         1 3XU       0.095700
     66 H13         -7.6800     4.1750    -0.5320 hx         1 3XU       0.095700
     67 H14         -4.4390     6.9730    -0.3540 hx         1 3XU       0.095700
     68 H15         -5.8880     7.1940     0.6620 hx         1 3XU       0.095700
     69 H16         -4.7430     5.8720     1.0190 hx         1 3XU       0.095700
     70 H17         -3.5430     1.0320     0.4040 h1         1 3XU       0.042200
     71 H18         -5.2010     0.7610    -0.1430 h1         1 3XU       0.042200
     72 H19         -3.9440    -1.3260    -0.1060 h1         1 3XU       0.084700
     73 H20         -5.7270    -1.0490    -1.7670 h1         1 3XU       0.074700
     74 H21         -4.3300     0.5800    -2.8930 ho         1 3XU       0.441000
     75 H22         -4.7930    -4.6670    -2.3670 ha         1 3XU       0.168000
     76 H23         -5.9800    -4.5670    -0.2710 hc         1 3XU       0.046700
     77 H24         -6.0120    -2.8150    -0.2560 hc         1 3XU       0.046700
     78 H25         -7.6720    -2.8290    -2.1520 hc         1 3XU       0.038700
     79 H26         -7.6690    -4.5920    -2.1250 hc         1 3XU       0.038700
     80 H27         -8.5300    -4.5600     0.2340 hc         1 3XU       0.038200
     81 H28         -8.5200    -2.7960     0.2160 hc         1 3XU       0.038200
     82 H29        -10.1910    -2.8080    -1.6630 hc         1 3XU       0.036200
     83 H30        -10.2080    -4.5720    -1.6340 hc         1 3XU       0.036200
     84 H31        -11.0710    -4.5270     0.7230 hc         1 3XU       0.037700
     85 H32        -11.0430    -2.7640     0.7020 hc         1 3XU       0.037700
     86 H33        -12.7110    -2.7610    -1.1790 hc         1 3XU       0.036700
     87 H34        -12.7440    -4.5250    -1.1510 hc         1 3XU       0.036700
     88 H35        -13.6110    -4.4740     1.2050 hc         1 3XU       0.037200
     89 H36        -13.5680    -2.7100     1.1850 hc         1 3XU       0.037200
     90 H37        -15.2330    -2.6920    -0.6980 hc         1 3XU       0.036700
     91 H38        -15.2810    -4.4550    -0.6720 hc         1 3XU       0.036700
     92 H39        -16.1500    -4.3980     1.6840 hc         1 3XU       0.037700
     93 H40        -16.0940    -2.6350     1.6630 hc         1 3XU       0.037700
     94 H41        -17.7570    -2.6060    -0.2230 hc         1 3XU       0.036700
     95 H42        -17.8160    -4.3690    -0.1950 hc         1 3XU       0.036700
     96 H43        -18.6850    -4.3030     2.1620 hc         1 3XU       0.037200
     97 H44        -18.6230    -2.5400     2.1360 hc         1 3XU       0.037200
     98 H45        -20.2890    -2.5100     0.2510 hc         1 3XU       0.036200
     99 H46        -20.3530    -4.2730     0.2800 hc         1 3XU       0.036200
    100 H47        -21.2580    -4.2090     2.6290 hc         1 3XU       0.031700
    101 H48        -21.1950    -2.4310     2.5990 hc         1 3XU       0.031700
    102 H49        -22.2910    -3.3010     1.5040 hc         1 3XU       0.031700
    103 H50          0.2780    -2.5780    -1.8430 hc         1 3XU       0.052700
    104 H52          0.5940    -0.2450     0.1180 hc         1 3XU       0.056700
    105 H54          2.7300    -1.8850    -1.3560 hc         1 3XU       0.034700
    106 H55          2.3720    -0.1810    -1.6390 hc         1 3XU       0.034700
    107 H56          3.0300     0.3340     0.7450 hc         1 3XU       0.041200
    108 H57          3.4240    -1.3680     0.9890 hc         1 3XU       0.041200
    109 H58          5.1590    -1.2080    -0.8410 hc         1 3XU       0.035700
    110 H59          4.7770     0.5030    -1.0350 hc         1 3XU       0.035700
    111 H60          5.4720     0.9100     1.3590 hc         1 3XU       0.038700
    112 H61          5.8860    -0.7980     1.5160 hc         1 3XU       0.038700
    113 H62          7.5880    -0.5340    -0.3330 hc         1 3XU       0.036200
    114 H63          7.1870     1.1800    -0.4400 hc         1 3XU       0.036200
    115 H64          7.9200     1.4830     1.9570 hc         1 3XU       0.038200
    116 H65          8.3490    -0.2270     2.0290 hc         1 3XU       0.038200
    117 H66         10.0180     0.1360     0.1660 hc         1 3XU       0.036700
    118 H67          9.6050     1.8500     0.1490 hc         1 3XU       0.036700
    119 H68         10.3770     2.0440     2.5440 hc         1 3XU       0.037700
    120 H69         10.8120     0.3350     2.5310 hc         1 3XU       0.037700
    121 H70         12.4490     0.7860     0.6600 hc         1 3XU       0.036700
    122 H71         12.0350     2.4990     0.7300 hc         1 3XU       0.036700
    123 H72         12.8480     2.5810     3.1190 hc         1 3XU       0.039200
    124 H73         13.2780     0.8740     3.0190 hc         1 3XU       0.039200
    125 H74         14.8700     1.4200     1.1310 hc         1 3XU       0.044200
    126 H75         14.4840     3.1180     1.3110 hc         1 3XU       0.044200
    127 H76         15.5620     3.2680     3.4920 ha         1 3XU       0.164000
    128 H77         17.2610     1.6500     4.0920 ha         1 3XU       0.164000
    129 H78         17.1250    -0.6510     3.4330 hc         1 3XU       0.044200
    130 H79         15.8140    -0.3580     2.3100 hc         1 3XU       0.044200
    131 H80         17.4180     0.8060     0.7480 hc         1 3XU       0.039200
    132 H81         18.7370     0.4570     1.8650 hc         1 3XU       0.039200
    133 H82         18.3360    -2.0050     1.5730 hc         1 3XU       0.036700
    134 H83         17.0030    -1.6600     0.4710 hc         1 3XU       0.036700
    135 H84         18.5990    -0.5230    -1.1030 hc         1 3XU       0.037200
    136 H85         19.9330    -0.8760    -0.0040 hc         1 3XU       0.037200
    137 H86         19.5240    -3.3360    -0.2950 hc         1 3XU       0.036700
    138 H87         18.1820    -2.9870    -1.3850 hc         1 3XU       0.036700
    139 H88         19.7670    -1.8500    -2.9710 hc         1 3XU       0.036700
    140 H89         21.1090    -2.2010    -1.8810 hc         1 3XU       0.036700
    141 H90         20.7030    -4.6650    -2.1710 hc         1 3XU       0.036700
    142 H91         19.3580    -4.3160    -3.2580 hc         1 3XU       0.036700
    143 H92         22.2960    -3.5570    -3.7770 hc         1 3XU       0.031367
    144 H93         21.4090    -4.8890    -4.5490 hc         1 3XU       0.031367
    145 H94         20.9390    -3.2070    -4.8730 hc         1 3XU       0.031367
    146 H51         -0.0180    -0.8570    -2.2470 hc         1 3XU       0.052700
    147 H53          0.9620    -1.9380     0.4490 hc         1 3XU       0.056700
    148 O2          -3.9810     1.7280    -1.5350 os         1 3XU      -0.615400
    149 C2          -5.0590    -3.6740    -1.9990 c2         1 3XU      -0.195200
@<TRIPOS>BOND
     1     1    31 2   
     2     2    15 1   
     3     2    31 1   
     4     2    55 1   
     5     3    16 1   
     6     3    56 1   
     7     3   149 2   
     8     4     5 1   
     9     5     6 1   
    10     5     7 1   
    11     5   148 1   
    12     7     8 1   
    13     8     9 1   
    14     8    57 1   
    15     8    58 1   
    16     9    10 1   
    17     9    59 1   
    18     9    60 1   
    19    10    11 1   
    20    10    12 1   
    21    10    13 1   
    22    11    61 1   
    23    11    62 1   
    24    11    63 1   
    25    12    64 1   
    26    12    65 1   
    27    12    66 1   
    28    13    67 1   
    29    13    68 1   
    30    13    69 1   
    31    14    15 1   
    32    14    70 1   
    33    14    71 1   
    34    14   148 1   
    35    15    16 1   
    36    15    72 1   
    37    16    17 1   
    38    16    73 1   
    39    17    74 1   
    40    18    19 1   
    41    18    76 1   
    42    18    77 1   
    43    18   149 1   
    44    19    20 1   
    45    19    78 1   
    46    19    79 1   
    47    20    21 1   
    48    20    80 1   
    49    20    81 1   
    50    21    22 1   
    51    21    82 1   
    52    21    83 1   
    53    22    23 1   
    54    22    84 1   
    55    22    85 1   
    56    23    24 1   
    57    23    86 1   
    58    23    87 1   
    59    24    25 1   
    60    24    88 1   
    61    24    89 1   
    62    25    26 1   
    63    25    90 1   
    64    25    91 1   
    65    26    27 1   
    66    26    92 1   
    67    26    93 1   
    68    27    28 1   
    69    27    94 1   
    70    27    95 1   
    71    28    29 1   
    72    28    96 1   
    73    28    97 1   
    74    29    30 1   
    75    29    98 1   
    76    29    99 1   
    77    30   100 1   
    78    30   101 1   
    79    30   102 1   
    80    31    32 1   
    81    32    33 1   
    82    32   103 1   
    83    32   146 1   
    84    33    34 1   
    85    33   104 1   
    86    33   147 1   
    87    34    35 1   
    88    34   105 1   
    89    34   106 1   
    90    35    36 1   
    91    35   107 1   
    92    35   108 1   
    93    36    37 1   
    94    36   109 1   
    95    36   110 1   
    96    37    38 1   
    97    37   111 1   
    98    37   112 1   
    99    38    39 1   
   100    38   113 1   
   101    38   114 1   
   102    39    40 1   
   103    39   115 1   
   104    39   116 1   
   105    40    41 1   
   106    40   117 1   
   107    40   118 1   
   108    41    42 1   
   109    41   119 1   
   110    41   120 1   
   111    42    43 1   
   112    42   121 1   
   113    42   122 1   
   114    43    44 1   
   115    43   123 1   
   116    43   124 1   
   117    44    45 1   
   118    44   125 1   
   119    44   126 1   
   120    45    46 2   
   121    45   127 1   
   122    46    47 1   
   123    46   128 1   
   124    47    48 1   
   125    47   129 1   
   126    47   130 1   
   127    48    49 1   
   128    48   131 1   
   129    48   132 1   
   130    49    50 1   
   131    49   133 1   
   132    49   134 1   
   133    50    51 1   
   134    50   135 1   
   135    50   136 1   
   136    51    52 1   
   137    51   137 1   
   138    51   138 1   
   139    52    53 1   
   140    52   139 1   
   141    52   140 1   
   142    53    54 1   
   143    53   141 1   
   144    53   142 1   
   145    54   143 1   
   146    54   144 1   
   147    54   145 1   
   148    75   149 1   
@<TRIPOS>SUBSTRUCTURE
     1 3XU         1 TEMP              0 ****  ****    0 ROOT
