@<TRIPOS>MOLECULE
3XV
   53    56     1     0     0
SMALL
abcg2


@<TRIPOS>ATOM
      1 C2          22.9850   -51.9250    -9.5700 ca         1 3XV       0.164900
      2 C4          22.6190   -50.2390   -11.0380 ca         1 3XV       0.085500
      3 C5          23.7410   -50.5810   -11.7420 ca         1 3XV      -0.229000
      4 C6          24.4890   -51.6840   -11.2670 ca         1 3XV       0.378900
      5 CAT         22.4640   -43.6340   -10.4700 c6         1 3XV       0.172800
      6 CAU         22.2780   -42.2050    -9.9830 c6         1 3XV      -0.030100
      7 CAV         22.2270   -42.1210    -8.4780 ca         1 3XV      -0.065300
      8 CBB         22.4050   -40.9000    -7.8240 ca         1 3XV      -0.109000
      9 CBA         22.3410   -40.8110    -6.4400 ca         1 3XV      -0.107000
     10 CAZ         22.0920   -41.9560    -5.6870 ca         1 3XV      -0.110000
     11 CAY         21.9130   -43.1740    -6.3290 ca         1 3XV      -0.107000
     12 CAW         21.9800   -43.2690    -7.7200 ca         1 3XV      -0.078300
     13 CAX         21.8200   -44.6170    -8.3780 c6         1 3XV       0.208100
     14 NAS         21.5090   -44.5160    -9.8020 n3         1 3XV      -0.743600
     15 CAR         21.4090   -45.8270   -10.4390 c3         1 3XV       0.126800
     16 CAB         20.0930   -46.5040   -10.0590 c3         1 3XV       0.149300
     17 OAA         19.0200   -45.5820   -10.2400 oh         1 3XV      -0.671000
     18 CAC         19.7900   -47.7290   -10.9200 c3         1 3XV       0.098000
     19 NAD         20.7290   -48.8100   -10.7010 ns         1 3XV      -0.486900
     20 CAE         21.7790   -49.0680   -11.4930 c          1 3XV       0.499600
     21 OAF         22.0680   -48.4310   -12.5060 o          1 3XV      -0.608100
     22 N3          22.2180   -50.9080    -9.9330 nb         1 3XV      -0.232000
     23 N1          24.0970   -52.3500   -10.1660 nb         1 3XV      -0.253000
     24 NAJ         25.6020   -52.0910   -11.9080 nu         1 3XV      -0.919100
     25 CAK         26.4310   -53.1780   -11.4610 cy         1 3XV       0.183500
     26 CAL         27.5570   -52.8920   -10.4460 cy         1 3XV       0.123600
     27 OAM         28.5440   -53.4750   -11.3420 oq         1 3XV      -0.453000
     28 CAN         27.5670   -53.5770   -12.4110 cy         1 3XV       0.123600
     29 H1          22.6790   -52.4740    -8.6850 h5         1 3XV       0.050100
     30 H2          24.0400   -50.0320   -12.6240 ha         1 3XV       0.154000
     31 H4          23.4990   -43.9660   -10.2800 h1         1 3XV       0.039200
     32 H5          23.0860   -41.5750   -10.3640 hc         1 3XV       0.056700
     33 H6          21.3460   -41.8070   -10.3970 hc         1 3XV       0.056700
     34 H7          22.5990   -40.0110    -8.4130 ha         1 3XV       0.111000
     35 H8          22.4840   -39.8560    -5.9500 ha         1 3XV       0.113000
     36 H9          22.0350   -41.8990    -4.6070 ha         1 3XV       0.113000
     37 H10         21.7160   -44.0670    -5.7470 ha         1 3XV       0.110000
     38 H11         21.0270   -45.1690    -7.8730 h1         1 3XV       0.043700
     39 H12         22.7480   -45.1980    -8.2340 h1         1 3XV       0.043700
     40 H14         22.2580   -46.4770   -10.1830 h1         1 3XV       0.053700
     41 H15         21.4180   -45.6720   -11.5190 h1         1 3XV       0.053700
     42 H16         20.1270   -46.8240    -9.0100 h1         1 3XV       0.033700
     43 H17         19.4220   -44.7080   -10.0820 ho         1 3XV       0.476000
     44 H18         19.8150   -47.4530   -11.9730 h1         1 3XV       0.072700
     45 H19         18.7880   -48.0860   -10.6780 h1         1 3XV       0.072700
     46 H20         20.6200   -49.4150    -9.8980 hn         1 3XV       0.345500
     47 H21         25.9410   -51.5160   -12.6620 hn         1 3XV       0.501000
     48 H22         25.8010   -54.0120   -11.1610 h1         1 3XV       0.098700
     49 H23         27.7390   -51.8270   -10.2800 h1         1 3XV       0.062200
     50 H24         27.5070   -53.4220    -9.4950 h1         1 3XV       0.062200
     51 H25         27.5240   -54.5810   -12.8340 h1         1 3XV       0.062200
     52 H26         27.7590   -52.8460   -13.2030 h1         1 3XV       0.062200
     53 H3          22.2950   -43.6890   -11.5450 h1         1 3XV       0.039200
@<TRIPOS>BOND
     1     1    22 ar  
     2     1    23 ar  
     3     1    29 1   
     4     2     3 ar  
     5     2    20 1   
     6     2    22 ar  
     7     3     4 ar  
     8     3    30 1   
     9     4    23 ar  
    10     4    24 1   
    11     5     6 1   
    12     5    14 1   
    13     5    31 1   
    14     5    53 1   
    15     6     7 1   
    16     6    32 1   
    17     6    33 1   
    18     7     8 ar  
    19     7    12 ar  
    20     8     9 ar  
    21     8    34 1   
    22     9    10 ar  
    23     9    35 1   
    24    10    11 ar  
    25    10    36 1   
    26    11    12 ar  
    27    11    37 1   
    28    12    13 1   
    29    13    14 1   
    30    13    38 1   
    31    13    39 1   
    32    14    15 1   
    33    15    16 1   
    34    15    40 1   
    35    15    41 1   
    36    16    17 1   
    37    16    18 1   
    38    16    42 1   
    39    17    43 1   
    40    18    19 1   
    41    18    44 1   
    42    18    45 1   
    43    19    20 1   
    44    19    46 1   
    45    20    21 2   
    46    24    25 1   
    47    24    47 1   
    48    25    26 1   
    49    25    28 1   
    50    25    48 1   
    51    26    27 1   
    52    26    49 1   
    53    26    50 1   
    54    27    28 1   
    55    28    51 1   
    56    28    52 1   
@<TRIPOS>SUBSTRUCTURE
     1 3XV         1 TEMP              0 ****  ****    0 ROOT
