@<TRIPOS>MOLECULE
3XV
   53    56     1     0     0
SMALL
No Charge or Current Charge


@<TRIPOS>ATOM
      1 C2          22.9950   -52.1970    -9.7030 ca         1 3XV       0.164900
      2 C4          22.5920   -50.3510   -11.0320 ca         1 3XV       0.085500
      3 C5          23.7560   -50.6680   -11.7670 ca         1 3XV      -0.229000
      4 C6          24.4910   -51.7960   -11.3850 ca         1 3XV       0.378900
      5 CAT         22.6200   -43.7470   -10.3530 c6         1 3XV       0.172800
      6 CAU         22.5540   -42.2430    -9.9960 c6         1 3XV      -0.030100
      7 CAV         22.2990   -41.9860    -8.5090 ca         1 3XV      -0.065300
      8 CBB         22.5020   -40.7000    -7.9740 ca         1 3XV      -0.109000
      9 CBA         22.2510   -40.4520    -6.6140 ca         1 3XV      -0.107000
     10 CAZ         21.7920   -41.4880    -5.7840 ca         1 3XV      -0.110000
     11 CAY         21.5830   -42.7720    -6.3150 ca         1 3XV      -0.107000
     12 CAW         21.8310   -43.0280    -7.6780 ca         1 3XV      -0.078300
     13 CAX         21.6160   -44.4390    -8.2390 c6         1 3XV       0.208100
     14 NAS         21.5010   -44.4980    -9.7280 n3         1 3XV      -0.743600
     15 CAR         21.3960   -45.8940   -10.2500 c3         1 3XV       0.126800
     16 CAB         20.0600   -46.5810    -9.8630 c3         1 3XV       0.149300
     17 OAA         19.0580   -45.5670    -9.9550 oh         1 3XV      -0.671000
     18 CAC         19.6890   -47.8020   -10.7430 c3         1 3XV       0.098000
     19 NAD         20.6290   -48.9270   -10.6020 ns         1 3XV      -0.486900
     20 CAE         21.7450   -49.1380   -11.3890 c          1 3XV       0.499600
     21 OAF         22.0240   -48.3860   -12.3140 o          1 3XV      -0.608100
     22 N3          22.2160   -51.1320    -9.9880 nb         1 3XV      -0.232000
     23 N1          24.1160   -52.5680   -10.3510 nb         1 3XV      -0.253000
     24 NAJ         25.6450   -52.1550   -12.0730 nu         1 3XV      -0.919100
     25 CAK         26.5370   -53.2940   -11.8180 cy         1 3XV       0.183500
     26 CAL         27.4340   -53.2870   -10.5350 cy         1 3XV       0.123600
     27 OAM         28.4570   -53.9990   -11.3240 oq         1 3XV      -0.453000
     28 CAN         27.9250   -53.3590   -12.5410 cy         1 3XV       0.123600
     29 H1          22.6850   -52.8180    -8.8640 h5         1 3XV       0.050100
     30 H2          24.0730   -50.0540   -12.6040 ha         1 3XV       0.154000
     31 H4          23.5850   -44.1550   -10.0160 h1         1 3XV       0.039200
     32 H5          23.4860   -41.7550   -10.3110 hc         1 3XV       0.056700
     33 H6          21.7490   -41.7760   -10.5780 hc         1 3XV       0.056700
     34 H7          22.8530   -39.8920    -8.6120 ha         1 3XV       0.111000
     35 H8          22.4100   -39.4570    -6.2040 ha         1 3XV       0.113000
     36 H9          21.5980   -41.2970    -4.7310 ha         1 3XV       0.113000
     37 H10         21.2300   -43.5710    -5.6670 ha         1 3XV       0.110000
     38 H11         20.7150   -44.8600    -7.7710 h1         1 3XV       0.043700
     39 H12         22.4610   -45.0610    -7.9060 h1         1 3XV       0.043700
     40 H14         22.2350   -46.5090    -9.8970 h1         1 3XV       0.053700
     41 H15         21.4530   -45.8760   -11.3470 h1         1 3XV       0.053700
     42 H16         20.1380   -46.9190    -8.8200 h1         1 3XV       0.033700
     43 H17         19.6120   -44.7450    -9.8910 ho         1 3XV       0.476000
     44 H18         19.6420   -47.4950   -11.7960 h1         1 3XV       0.072700
     45 H19         18.6900   -48.1540   -10.4570 h1         1 3XV       0.072700
     46 H20         20.4680   -49.6040    -9.8630 hn         1 3XV       0.345500
     47 H21         25.8750   -51.5440   -12.8600 hn         1 3XV       0.501000
     48 H22         25.9700   -54.2280   -11.9240 h1         1 3XV       0.098700
     49 H23         27.7780   -52.2940   -10.2200 h1         1 3XV       0.062200
     50 H24         27.0590   -53.8760    -9.6910 h1         1 3XV       0.062200
     51 H25         27.9730   -54.0100   -13.4210 h1         1 3XV       0.062200
     52 H26         28.3950   -52.3860   -12.7280 h1         1 3XV       0.062200
     53 H3          22.5930   -43.8470   -11.4480 h1         1 3XV       0.039200
@<TRIPOS>BOND
     1     1    22 ar  
     2     1    23 ar  
     3     1    29 1   
     4     2     3 ar  
     5     2    20 1   
     6     2    22 ar  
     7     3     4 ar  
     8     3    30 1   
     9     4    23 ar  
    10     4    24 1   
    11     5     6 1   
    12     5    14 1   
    13     5    31 1   
    14     5    53 1   
    15     6     7 1   
    16     6    32 1   
    17     6    33 1   
    18     7     8 ar  
    19     7    12 ar  
    20     8     9 ar  
    21     8    34 1   
    22     9    10 ar  
    23     9    35 1   
    24    10    11 ar  
    25    10    36 1   
    26    11    12 ar  
    27    11    37 1   
    28    12    13 1   
    29    13    14 1   
    30    13    38 1   
    31    13    39 1   
    32    14    15 1   
    33    15    16 1   
    34    15    40 1   
    35    15    41 1   
    36    16    17 1   
    37    16    18 1   
    38    16    42 1   
    39    17    43 1   
    40    18    19 1   
    41    18    44 1   
    42    18    45 1   
    43    19    20 1   
    44    19    46 1   
    45    20    21 2   
    46    24    25 1   
    47    24    47 1   
    48    25    26 1   
    49    25    28 1   
    50    25    48 1   
    51    26    27 1   
    52    26    49 1   
    53    26    50 1   
    54    27    28 1   
    55    28    51 1   
    56    28    52 1   
@<TRIPOS>SUBSTRUCTURE
     1 3XV         1 TEMP              0 ****  ****    0 ROOT
