@<TRIPOS>MOLECULE
3XW
   67    72     1     0     0
SMALL
No Charge or Current Charge


@<TRIPOS>ATOM
      1 C4          -5.9100     1.3090    -1.6420 ca         1 3XW       0.172300
      2 C5          -5.1470     0.7570    -0.6370 ca         1 3XW      -0.254800
      3 C6          -4.0510     1.4820    -0.1510 ca         1 3XW       0.435900
      4 N1          -3.7580     2.6950    -0.6630 nb         1 3XW      -0.284000
      5 N3          -5.6420     2.5150    -2.1730 nb         1 3XW      -0.190000
      6 FAC         -9.6400    -1.2530    -0.2440 f          1 3XW      -0.114000
      7 CBN         -8.7280    -2.1600     0.1760 c3         1 3XW       0.300000
      8 FAD         -8.3200    -1.8010     1.4150 f          1 3XW      -0.114000
      9 FAE         -9.3490    -3.3570     0.2750 f          1 3XW      -0.114000
     10 CBD         -6.7740    -0.9520    -0.9530 cc         1 3XW      -0.112600
     11 SAZ         -7.2660     0.2720    -2.1610 ss         1 3XW      -0.074900
     12 CAM         -5.6550    -0.5450    -0.2530 cd         1 3XW      -0.115200
     13 C2          -4.5680     3.1500    -1.6490 ca         1 3XW       0.178900
     14 NAX         -3.2420     0.9800     0.8630 nu         1 3XW      -0.914100
     15 CBK         -1.9220     1.5100     1.2530 c6         1 3XW       0.236500
     16 CAO         -1.5370     0.9640     2.6440 c6         1 3XW      -0.092900
     17 CAQ         -0.1230     1.4450     3.0400 c6         1 3XW       0.173800
     18 CAN         -0.8500     1.1040     0.2180 c6         1 3XW      -0.092900
     19 CAP          0.5490     1.5770     0.6720 c6         1 3XW       0.173800
     20 NBL          0.8890     1.0500     2.0240 n3         1 3XW      -0.732600
     21 CAR          2.2680     1.3910     2.4500 c3         1 3XW       0.227100
     22 CBE          3.3520     0.8370     1.5230 ca         1 3XW      -0.126300
     23 CBB          3.6480    -0.5520     1.4720 ca         1 3XW       0.017700
     24 CAA          2.9010    -1.5610     2.3420 c3         1 3XW      -0.041800
     25 CAH          4.0690     1.7420     0.7000 ca         1 3XW      -0.073000
     26 CAI          5.0720     1.2870    -0.1770 ca         1 3XW      -0.139000
     27 CBJ          5.3440    -0.0880    -0.2190 ca         1 3XW      -0.017200
     28 CBG          4.6560    -0.9680     0.5780 ca         1 3XW      -0.118800
     29 CAL          5.1790    -2.2790     0.2970 cc         1 3XW      -0.166200
     30 CBC          6.1740    -2.1340    -0.6600 cd         1 3XW       0.016200
     31 CAF          6.9860    -3.1560    -1.2290 ch         1 3XW       0.314700
     32 NAB          7.6430    -3.9880    -1.7210 n1         1 3XW      -0.460000
     33 NBM          6.2780    -0.7650    -0.9990 na         1 3XW      -0.066700
     34 CAS          7.2180    -0.1190    -1.9330 c3         1 3XW       0.165900
     35 CBA          8.5650     0.1330    -1.3100 cc         1 3XW      -0.254300
     36 CAJ          9.7610    -0.4770    -1.5490 cd         1 3XW      -0.141000
     37 NAU         10.6650     0.1490    -0.6810 na         1 3XW       0.002800
     38 NAY         10.0590     1.1360     0.0970 nd         1 3XW      -0.517800
     39 CAK          8.8070     1.0890    -0.3110 cc         1 3XW       0.262900
     40 H1          -6.8550    -3.0340    -0.4520 hc         1 3XW       0.087200
     41 H2          -7.9040    -2.5730    -1.7770 hc         1 3XW       0.087200
     42 H4          -5.2070    -1.1620     0.5220 ha         1 3XW       0.198000
     43 H5          -4.3310     4.1290    -2.0620 h5         1 3XW       0.047100
     44 H6          -3.5070     0.0610     1.2080 hn         1 3XW       0.494000
     45 H7          -1.9540     2.6100     1.3220 h1         1 3XW       0.081700
     46 H8          -2.2640     1.2970     3.3960 hc         1 3XW       0.054950
     47 H9          -1.5590    -0.1350     2.6420 hc         1 3XW       0.054950
     48 H10         -0.1350     2.5390     3.1610 h1         1 3XW       0.036450
     49 H11          0.1320     1.0150     4.0190 h1         1 3XW       0.036450
     50 H12         -0.8420     0.0130     0.0890 hc         1 3XW       0.054950
     51 H13         -1.0820     1.5380    -0.7630 hc         1 3XW       0.054950
     52 H14          1.2830     1.2380    -0.0730 h1         1 3XW       0.036450
     53 H15          0.5750     2.6770     0.6740 h1         1 3XW       0.036450
     54 H17          2.3740     2.4830     2.5150 h1         1 3XW       0.035700
     55 H18          2.4510     1.0060     3.4620 h1         1 3XW       0.035700
     56 H19          1.8560    -1.6530     2.0230 hc         1 3XW       0.046033
     57 H20          3.3430    -2.5610     2.3010 hc         1 3XW       0.046033
     58 H21          2.9050    -1.2580     3.3950 hc         1 3XW       0.046033
     59 H22          3.8430     2.8060     0.7380 ha         1 3XW       0.109000
     60 H23          5.6110     1.9940    -0.8000 ha         1 3XW       0.119000
     61 H24          4.8810    -3.2250     0.7430 ha         1 3XW       0.213000
     62 H25          7.3400    -0.7680    -2.8100 h1         1 3XW       0.067200
     63 H26          6.7930     0.8260    -2.2910 h1         1 3XW       0.067200
     64 H27         10.0400    -1.2740    -2.2320 h4         1 3XW       0.163000
     65 H28         11.6600    -0.0610    -0.5950 hn         1 3XW       0.375000
     66 H29          8.0890     1.7630     0.1370 h4         1 3XW       0.042100
     67 CAT         -7.5340    -2.2460    -0.7980 c3         1 3XW      -0.076200
@<TRIPOS>BOND
     1     1     2 ar  
     2     1     5 ar  
     3     1    11 1   
     4     2     3 ar  
     5     2    12 1   
     6     3     4 ar  
     7     3    14 1   
     8     4    13 ar  
     9     5    13 ar  
    10     6     7 1   
    11     7     8 1   
    12     7     9 1   
    13     7    67 1   
    14    10    11 1   
    15    10    12 2   
    16    10    67 1   
    17    12    42 1   
    18    13    43 1   
    19    14    15 1   
    20    14    44 1   
    21    15    16 1   
    22    15    18 1   
    23    15    45 1   
    24    16    17 1   
    25    16    46 1   
    26    16    47 1   
    27    17    20 1   
    28    17    48 1   
    29    17    49 1   
    30    18    19 1   
    31    18    50 1   
    32    18    51 1   
    33    19    20 1   
    34    19    52 1   
    35    19    53 1   
    36    20    21 1   
    37    21    22 1   
    38    21    54 1   
    39    21    55 1   
    40    22    23 ar  
    41    22    25 ar  
    42    23    24 1   
    43    23    28 ar  
    44    24    56 1   
    45    24    57 1   
    46    24    58 1   
    47    25    26 ar  
    48    25    59 1   
    49    26    27 ar  
    50    26    60 1   
    51    27    28 ar  
    52    27    33 1   
    53    28    29 1   
    54    29    30 2   
    55    29    61 1   
    56    30    31 1   
    57    30    33 1   
    58    31    32 3   
    59    33    34 1   
    60    34    35 1   
    61    34    62 1   
    62    34    63 1   
    63    35    36 2   
    64    35    39 1   
    65    36    37 1   
    66    36    64 1   
    67    37    38 1   
    68    37    65 1   
    69    38    39 2   
    70    39    66 1   
    71    40    67 1   
    72    41    67 1   
@<TRIPOS>SUBSTRUCTURE
     1 3XW         1 TEMP              0 ****  ****    0 ROOT
