@<TRIPOS>MOLECULE
3XW
   67    72     1     0     0
SMALL
abcg2


@<TRIPOS>ATOM
      1 C4          -6.0040     1.2280    -1.3810 ca         1 3XW       0.172300
      2 C5          -5.1650     0.5460    -0.5070 ca         1 3XW      -0.254800
      3 C6          -3.9900     1.2460    -0.1220 ca         1 3XW       0.435900
      4 N1          -3.7740     2.4710    -0.6020 nb         1 3XW      -0.284000
      5 N3          -5.7910     2.4530    -1.8630 nb         1 3XW      -0.190000
      6 FAC         -9.7070    -1.1790    -0.2390 f          1 3XW      -0.114000
      7 CBN         -8.8550    -2.0890     0.2580 c3         1 3XW       0.300000
      8 FAD         -8.5220    -1.6750     1.4870 f          1 3XW      -0.114000
      9 FAE         -9.5420    -3.2300     0.3990 f          1 3XW      -0.114000
     10 CBD         -6.8440    -1.0250    -0.7620 cc         1 3XW      -0.112600
     11 SAZ         -7.3950     0.2790    -1.7760 ss         1 3XW      -0.074900
     12 CAM         -5.6650    -0.7450    -0.1600 cd         1 3XW      -0.115200
     13 C2          -4.6720     2.9970    -1.4270 ca         1 3XW       0.178900
     14 NAX         -3.1040     0.7100     0.7220 nu         1 3XW      -0.914100
     15 CBK         -1.8540     1.3350     1.1120 c6         1 3XW       0.236500
     16 CAO         -1.3940     0.7750     2.4500 c6         1 3XW      -0.092900
     17 CAQ         -0.0610     1.3870     2.8520 c6         1 3XW       0.173800
     18 CAN         -0.7560     1.1460     0.0700 c6         1 3XW      -0.092900
     19 CAP          0.5500     1.7460     0.5650 c6         1 3XW       0.173800
     20 NBL          0.9420     1.1620     1.8310 n3         1 3XW      -0.732600
     21 CAR          2.2610     1.5860     2.2570 c3         1 3XW       0.227100
     22 CBE          3.3500     1.0270     1.3790 ca         1 3XW      -0.126300
     23 CBB          3.5710    -0.3410     1.3080 ca         1 3XW       0.017700
     24 CAA          2.7620    -1.3340     2.0880 c3         1 3XW      -0.041800
     25 CAH          4.1440     1.9170     0.6250 ca         1 3XW      -0.073000
     26 CAI          5.1570     1.5010    -0.2090 ca         1 3XW      -0.139000
     27 CBJ          5.3720     0.1250    -0.2930 ca         1 3XW      -0.017200
     28 CBG          4.5970    -0.7900     0.4550 ca         1 3XW      -0.118800
     29 CAL          5.0860    -2.0880     0.1450 cc         1 3XW      -0.166200
     30 CBC          6.1060    -1.9110    -0.7530 cd         1 3XW       0.016200
     31 CAF          6.9080    -2.9030    -1.3580 ch         1 3XW       0.314700
     32 NAB          7.5600    -3.7180    -1.8490 n1         1 3XW      -0.460000
     33 NBM          6.2750    -0.5760    -1.0350 na         1 3XW      -0.066700
     34 CAS          7.3560    -0.0160    -1.8280 c3         1 3XW       0.165900
     35 CBA          8.6430     0.0440    -1.0760 cc         1 3XW      -0.254300
     36 CAJ          9.7540    -0.7520    -1.2450 cd         1 3XW      -0.141000
     37 NAU         10.6490    -0.3520    -0.3300 na         1 3XW       0.002800
     38 NAY         10.2110     0.6450     0.4300 nd         1 3XW      -0.517800
     39 CAK          8.9930     0.8970    -0.0110 cc         1 3XW       0.262900
     40 H1          -7.0200    -3.0530    -0.1850 hc         1 3XW       0.087200
     41 H2          -7.9820    -2.6440    -1.5970 hc         1 3XW       0.087200
     42 H4          -5.1750    -1.4440     0.5040 ha         1 3XW       0.198000
     43 H5          -4.4520     3.9970    -1.7870 h5         1 3XW       0.047100
     44 H6          -3.2520    -0.2410     1.0180 hn         1 3XW       0.494000
     45 H7          -2.0420     2.4060     1.2290 h1         1 3XW       0.081700
     46 H8          -2.1390     0.9730     3.2230 hc         1 3XW       0.054950
     47 H9          -1.2760    -0.3110     2.3740 hc         1 3XW       0.054950
     48 H10         -0.2030     2.4630     3.0590 h1         1 3XW       0.036450
     49 H11          0.2780     0.9300     3.7840 h1         1 3XW       0.036450
     50 H12         -0.6160     0.0780    -0.1200 hc         1 3XW       0.054950
     51 H13         -1.0450     1.6160    -0.8720 hc         1 3XW       0.054950
     52 H14          1.3360     1.5660    -0.1720 h1         1 3XW       0.036450
     53 H15          0.4400     2.8440     0.6440 h1         1 3XW       0.036450
     54 H17          2.3510     2.6850     2.2930 h1         1 3XW       0.035700
     55 H18          2.4070     1.2390     3.2840 h1         1 3XW       0.035700
     56 H19          1.8290    -1.5680     1.5760 hc         1 3XW       0.046033
     57 H20          3.3090    -2.2650     2.2330 hc         1 3XW       0.046033
     58 H21          2.4900    -0.9540     3.0720 hc         1 3XW       0.046033
     59 H22          3.9420     2.9780     0.7090 ha         1 3XW       0.109000
     60 H23          5.7430     2.2160    -0.7720 ha         1 3XW       0.119000
     61 H24          4.7360    -3.0390     0.5120 ha         1 3XW       0.213000
     62 H25          7.4670    -0.6110    -2.7350 h1         1 3XW       0.067200
     63 H26          7.0400     0.9750    -2.1520 h1         1 3XW       0.067200
     64 H27          9.9580    -1.5510    -1.9390 h4         1 3XW       0.163000
     65 H28         11.5740    -0.7240    -0.1860 hn         1 3XW       0.375000
     66 H29          8.4000     1.6790     0.4410 h4         1 3XW       0.042100
     67 CAT         -7.6460    -2.2750    -0.6250 c3         1 3XW      -0.076200
@<TRIPOS>BOND
     1     1     2 ar  
     2     1     5 ar  
     3     1    11 1   
     4     2     3 ar  
     5     2    12 1   
     6     3     4 ar  
     7     3    14 1   
     8     4    13 ar  
     9     5    13 ar  
    10     6     7 1   
    11     7     8 1   
    12     7     9 1   
    13     7    67 1   
    14    10    11 1   
    15    10    12 2   
    16    10    67 1   
    17    12    42 1   
    18    13    43 1   
    19    14    15 1   
    20    14    44 1   
    21    15    16 1   
    22    15    18 1   
    23    15    45 1   
    24    16    17 1   
    25    16    46 1   
    26    16    47 1   
    27    17    20 1   
    28    17    48 1   
    29    17    49 1   
    30    18    19 1   
    31    18    50 1   
    32    18    51 1   
    33    19    20 1   
    34    19    52 1   
    35    19    53 1   
    36    20    21 1   
    37    21    22 1   
    38    21    54 1   
    39    21    55 1   
    40    22    23 ar  
    41    22    25 ar  
    42    23    24 1   
    43    23    28 ar  
    44    24    56 1   
    45    24    57 1   
    46    24    58 1   
    47    25    26 ar  
    48    25    59 1   
    49    26    27 ar  
    50    26    60 1   
    51    27    28 ar  
    52    27    33 1   
    53    28    29 1   
    54    29    30 2   
    55    29    61 1   
    56    30    31 1   
    57    30    33 1   
    58    31    32 3   
    59    33    34 1   
    60    34    35 1   
    61    34    62 1   
    62    34    63 1   
    63    35    36 2   
    64    35    39 1   
    65    36    37 1   
    66    36    64 1   
    67    37    38 1   
    68    37    65 1   
    69    38    39 2   
    70    39    66 1   
    71    40    67 1   
    72    41    67 1   
@<TRIPOS>SUBSTRUCTURE
     1 3XW         1 TEMP              0 ****  ****    0 ROOT
