@<TRIPOS>MOLECULE
3XX
   18    18     1     0     0
SMALL
abcg2


@<TRIPOS>ATOM
      1 OAC          0.9870    -1.8750    -0.0720 o          1 3XX      -0.520100
      2 CAI          0.3230    -0.8490    -0.0380 c          1 3XX       0.540500
      3 CAH         -1.1150    -0.7140    -0.0570 cc         1 3XX      -0.117100
      4 OAD         -2.0010    -1.7250    -0.1150 oh         1 3XX      -0.508100
      5 CAG         -1.4070     0.6030    -0.0030 cd         1 3XX       0.085900
      6 CAB         -2.7030     1.3070     0.0100 c3         1 3XX      -0.035900
      7 OAF         -0.2900     1.3780     0.0510 os         1 3XX      -0.214200
      8 CAJ          0.8040     0.5430     0.0320 cc         1 3XX      -0.072100
      9 CAE          2.0460     1.0210     0.0740 c2         1 3XX      -0.127200
     10 CAA          3.2810     0.1840     0.0550 c3         1 3XX      -0.061900
     11 H1          -1.5200    -2.5610    -0.1470 ho         1 3XX       0.478000
     12 H2          -2.8130     1.9000     0.9200 hc         1 3XX       0.063367
     13 H3          -2.7820     1.9910    -0.8380 hc         1 3XX       0.063367
     14 H4          -3.5280     0.6010    -0.0420 hc         1 3XX       0.063367
     15 H5           2.1630     2.0990     0.1250 ha         1 3XX       0.190000
     16 H6           4.1660     0.8140     0.0790 hc         1 3XX       0.057367
     17 H7           3.3230    -0.4890     0.9130 hc         1 3XX       0.057367
     18 H8           3.3320    -0.4400    -0.8380 hc         1 3XX       0.057367
@<TRIPOS>BOND
     1     1     2 2   
     2     2     3 1   
     3     2     8 1   
     4     3     4 1   
     5     3     5 2   
     6     4    11 1   
     7     5     6 1   
     8     5     7 1   
     9     6    12 1   
    10     6    13 1   
    11     6    14 1   
    12     7     8 1   
    13     8     9 2   
    14     9    10 1   
    15     9    15 1   
    16    10    16 1   
    17    10    17 1   
    18    10    18 1   
@<TRIPOS>SUBSTRUCTURE
     1 3XX         1 TEMP              0 ****  ****    0 ROOT
