@<TRIPOS>MOLECULE
3XX
   18    18     1     0     0
SMALL
No Charge or Current Charge


@<TRIPOS>ATOM
      1 OAC          0.9710    -1.8940    -0.0720 o          1 3XX      -0.520100
      2 CAI          0.3240    -0.8530    -0.0370 c          1 3XX       0.540500
      3 CAH         -1.1410    -0.6930    -0.0530 cc         1 3XX      -0.117100
      4 OAD         -1.9650    -1.7770    -0.1130 oh         1 3XX      -0.508100
      5 CAG         -1.4590     0.6440    -0.0000 cd         1 3XX       0.085900
      6 CAB         -2.7870     1.3490     0.0100 c3         1 3XX      -0.035900
      7 OAF         -0.3030     1.3800     0.0500 os         1 3XX      -0.214200
      8 CAJ          0.7860     0.5480     0.0310 cc         1 3XX      -0.072100
      9 CAE          2.0700     0.9940     0.0710 c2         1 3XX      -0.127200
     10 CAA          3.3370     0.1630     0.0550 c3         1 3XX      -0.061900
     11 H1          -1.4020    -2.5870    -0.1400 ho         1 3XX       0.478000
     12 H2          -2.9100     1.9380     0.9250 hc         1 3XX       0.063367
     13 H3          -2.8750     2.0290    -0.8450 hc         1 3XX       0.063367
     14 H4          -3.6150     0.6330    -0.0430 hc         1 3XX       0.063367
     15 H5           2.2280     2.0730     0.1200 ha         1 3XX       0.190000
     16 H6           4.2290     0.8000     0.0970 hc         1 3XX       0.057367
     17 H7           3.3750    -0.5180     0.9130 hc         1 3XX       0.057367
     18 H8           3.4030    -0.4410    -0.8580 hc         1 3XX       0.057367
@<TRIPOS>BOND
     1     1     2 2   
     2     2     3 1   
     3     2     8 1   
     4     3     4 1   
     5     3     5 2   
     6     4    11 1   
     7     5     6 1   
     8     5     7 1   
     9     6    12 1   
    10     6    13 1   
    11     6    14 1   
    12     7     8 1   
    13     8     9 2   
    14     9    10 1   
    15     9    15 1   
    16    10    16 1   
    17    10    17 1   
    18    10    18 1   
@<TRIPOS>SUBSTRUCTURE
     1 3XX         1 TEMP              0 ****  ****    0 ROOT
