@<TRIPOS>MOLECULE
3XY
   54    58     1     0     0
SMALL
No Charge or Current Charge


@<TRIPOS>ATOM
      1 C4          -5.0880    -1.6740    -0.3990 ca         1 3XY       0.172300
      2 C5          -3.9280    -0.9780    -0.1370 ca         1 3XY      -0.254800
      3 C6          -2.7110    -1.5070    -0.5910 ca         1 3XY       0.434900
      4 N1          -2.6890    -2.6720    -1.2710 nb         1 3XY      -0.285000
      5 N3          -5.0960    -2.8380    -1.0720 nb         1 3XY      -0.190000
      6 FAB         -7.5780     2.3460    -0.1420 f          1 3XY      -0.113667
      7 CBG         -6.6260     2.7590     0.7250 c3         1 3XY       0.300000
      8 FAC         -5.5970     3.2660     0.0070 f          1 3XY      -0.113667
      9 FAD         -7.1480     3.7620     1.4670 f          1 3XY      -0.113667
     10 CAY         -5.5410     0.4460     0.8810 cc         1 3XY      -0.112600
     11 SAV         -6.5540    -0.8840     0.2420 ss         1 3XY      -0.074900
     12 CAK         -4.2040     0.2370     0.6010 cd         1 3XY      -0.115200
     13 C2          -3.8820    -3.2790    -1.4770 ca         1 3XY       0.178900
     14 NAT         -1.5060    -0.8530    -0.3600 nu         1 3XY      -0.912100
     15 CBE         -0.1630    -1.4350    -0.5410 c6         1 3XY       0.236500
     16 CAM          0.8870    -0.3050    -0.5860 c6         1 3XY      -0.092400
     17 CAO          2.3120    -0.8930    -0.6960 c6         1 3XY       0.168300
     18 CAL          0.1650    -2.4060     0.6150 c6         1 3XY      -0.092400
     19 CAN          1.6070    -2.9430     0.4770 c6         1 3XY       0.168300
     20 NBF          2.6000    -1.8350     0.4230 n3         1 3XY      -0.723600
     21 CAP          3.9940    -2.3380     0.4100 c3         1 3XY       0.218100
     22 CAW          5.0360    -1.2340     0.5580 ca         1 3XY      -0.117300
     23 CAI          5.9340    -0.9540    -0.4980 ca         1 3XY      -0.047000
     24 CBA          6.8690     0.0710    -0.3110 ca         1 3XY      -0.118800
     25 CAJ          7.8860     0.5730    -1.1860 cc         1 3XY      -0.167200
     26 CAX          8.5320     1.5980    -0.5060 cd         1 3XY       0.016200
     27 CAE          9.6140     2.4020    -0.9640 ch         1 3XY       0.298700
     28 NAA         10.5020     3.0750    -1.3170 n1         1 3XY      -0.436000
     29 NAU          7.9430     1.7480     0.7730 na         1 3XY      -0.200700
     30 CBB          6.9360     0.7970     0.8440 ca         1 3XY      -0.029200
     31 CAH          6.0610     0.5470     1.9090 ca         1 3XY      -0.137000
     32 CAG          5.1040    -0.4800     1.7570 ca         1 3XY      -0.056000
     33 H1          -5.4310     1.9960     2.3550 hc         1 3XY       0.087700
     34 H2          -7.0090     1.2460     2.2180 hc         1 3XY       0.087700
     35 H3          -3.4370     0.9400     0.9150 ha         1 3XY       0.198000
     36 H4          -3.8630    -4.2190    -2.0240 h5         1 3XY       0.048100
     37 H5          -1.5830     0.0180     0.1600 hn         1 3XY       0.495000
     38 H6          -0.1060    -1.9830    -1.4960 h1         1 3XY       0.082700
     39 H7           0.6950     0.3560    -1.4410 hc         1 3XY       0.054700
     40 H8           0.8200     0.3150     0.3190 hc         1 3XY       0.054700
     41 H9           2.4160    -1.4070    -1.6630 h1         1 3XY       0.037950
     42 H10          3.0290    -0.0590    -0.6960 h1         1 3XY       0.037950
     43 H11          0.0560    -1.8950     1.5810 hc         1 3XY       0.054700
     44 H12         -0.5400    -3.2470     0.6190 hc         1 3XY       0.054700
     45 H13          1.8190    -3.6030     1.3310 h1         1 3XY       0.037950
     46 H14          1.6760    -3.5600    -0.4320 h1         1 3XY       0.037950
     47 H16          4.1400    -3.0460     1.2380 h1         1 3XY       0.039200
     48 H17          4.1840    -2.8940    -0.5190 h1         1 3XY       0.039200
     49 H18          5.9020    -1.5150    -1.4300 ha         1 3XY       0.117000
     50 H19          8.1220     0.2320    -2.1910 ha         1 3XY       0.215000
     51 H20          8.2070     2.4160     1.4890 hn         1 3XY       0.361000
     52 H21          6.1140     1.1270     2.8280 ha         1 3XY       0.119000
     53 H22          4.4100    -0.6920     2.5670 ha         1 3XY       0.125000
     54 CAQ         -6.1540     1.6020     1.6310 c3         1 3XY      -0.076200
@<TRIPOS>BOND
     1     1     2 ar  
     2     1     5 ar  
     3     1    11 1   
     4     2     3 ar  
     5     2    12 1   
     6     3     4 ar  
     7     3    14 1   
     8     4    13 ar  
     9     5    13 ar  
    10     6     7 1   
    11     7     8 1   
    12     7     9 1   
    13     7    54 1   
    14    10    11 1   
    15    10    12 2   
    16    10    54 1   
    17    12    35 1   
    18    13    36 1   
    19    14    15 1   
    20    14    37 1   
    21    15    16 1   
    22    15    18 1   
    23    15    38 1   
    24    16    17 1   
    25    16    39 1   
    26    16    40 1   
    27    17    20 1   
    28    17    41 1   
    29    17    42 1   
    30    18    19 1   
    31    18    43 1   
    32    18    44 1   
    33    19    20 1   
    34    19    45 1   
    35    19    46 1   
    36    20    21 1   
    37    21    22 1   
    38    21    47 1   
    39    21    48 1   
    40    22    23 ar  
    41    22    32 ar  
    42    23    24 ar  
    43    23    49 1   
    44    24    25 1   
    45    24    30 ar  
    46    25    26 2   
    47    25    50 1   
    48    26    27 1   
    49    26    29 1   
    50    27    28 3   
    51    29    30 1   
    52    29    51 1   
    53    30    31 ar  
    54    31    32 ar  
    55    31    52 1   
    56    32    53 1   
    57    33    54 1   
    58    34    54 1   
@<TRIPOS>SUBSTRUCTURE
     1 3XY         1 TEMP              0 ****  ****    0 ROOT
