@<TRIPOS>MOLECULE
3XY
   54    58     1     0     0
SMALL
abcg2


@<TRIPOS>ATOM
      1 C4          -4.9960    -1.5870    -0.3400 ca         1 3XY       0.172300
      2 C5          -3.8630    -0.8730     0.0310 ca         1 3XY      -0.254800
      3 C6          -2.6240    -1.4590    -0.3430 ca         1 3XY       0.434900
      4 N1          -2.6250    -2.6160    -1.0060 nb         1 3XY      -0.285000
      5 N3          -4.9990    -2.7440    -1.0030 nb         1 3XY      -0.190000
      6 FAB         -7.6410     2.1260    -0.2830 f          1 3XY      -0.113667
      7 CBG         -6.7230     2.6690     0.5300 c3         1 3XY       0.300000
      8 FAC         -5.7570     3.1620    -0.2550 f          1 3XY      -0.113667
      9 FAD         -7.3060     3.7090     1.1390 f          1 3XY      -0.113667
     10 CAY         -5.5100     0.5190     0.8700 cc         1 3XY      -0.112600
     11 SAV         -6.4370    -0.7760     0.1670 ss         1 3XY      -0.074900
     12 CAK         -4.1770     0.3360     0.7230 cd         1 3XY      -0.115200
     13 C2          -3.7910    -3.1820    -1.2960 ca         1 3XY       0.178900
     14 NAT         -1.4590    -0.8700    -0.0610 nu         1 3XY      -0.912100
     15 CBE         -0.1580    -1.4380    -0.3540 c6         1 3XY       0.236500
     16 CAM          0.8800    -0.3290    -0.4550 c6         1 3XY      -0.092400
     17 CAO          2.2600    -0.9140    -0.7080 c6         1 3XY       0.168300
     18 CAL          0.2830    -2.4550     0.6940 c6         1 3XY      -0.092400
     19 CAN          1.6840    -2.9610     0.3880 c6         1 3XY       0.168300
     20 NBF          2.6320    -1.8630     0.3250 n3         1 3XY      -0.723600
     21 CAP          3.9900    -2.3430     0.1550 c3         1 3XY       0.218100
     22 CAW          5.0080    -1.2520     0.3540 ca         1 3XY      -0.117300
     23 CAI          5.9330    -0.9610    -0.6220 ca         1 3XY      -0.047000
     24 CBA          6.8780     0.0550    -0.3970 ca         1 3XY      -0.118800
     25 CAJ          7.9360     0.5950    -1.1720 cc         1 3XY      -0.167200
     26 CAX          8.5050     1.5830    -0.4080 cd         1 3XY       0.016200
     27 CAE          9.5950     2.4170    -0.7390 ch         1 3XY       0.298700
     28 NAA         10.4900     3.0900    -1.0160 n1         1 3XY      -0.436000
     29 NAU          7.8550     1.6810     0.7950 na         1 3XY      -0.200700
     30 CBB          6.8580     0.7600     0.8260 ca         1 3XY      -0.029200
     31 CAH          5.9200     0.4750     1.8230 ca         1 3XY      -0.137000
     32 CAG          5.0110    -0.5240     1.5670 ca         1 3XY      -0.056000
     33 H1          -5.4790     2.1840     2.1790 hc         1 3XY       0.087700
     34 H2          -7.0190     1.3400     2.1590 hc         1 3XY       0.087700
     35 H3          -3.4500     1.0420     1.1010 ha         1 3XY       0.198000
     36 H4          -3.7380    -4.1200    -1.8390 h5         1 3XY       0.048100
     37 H5          -1.4770    -0.0420     0.5140 hn         1 3XY       0.495000
     38 H6          -0.2260    -1.9420    -1.3220 h1         1 3XY       0.082700
     39 H7           0.6270     0.3600    -1.2640 hc         1 3XY       0.054700
     40 H8           0.8960     0.2490     0.4750 hc         1 3XY       0.054700
     41 H9           2.2760    -1.3860    -1.7080 h1         1 3XY       0.037950
     42 H10          2.9930    -0.1060    -0.7330 h1         1 3XY       0.037950
     43 H11          0.2740    -1.9860     1.6820 hc         1 3XY       0.054700
     44 H12         -0.4130    -3.2960     0.7210 hc         1 3XY       0.054700
     45 H13          2.0010    -3.6540     1.1700 h1         1 3XY       0.037950
     46 H14          1.6690    -3.5380    -0.5540 h1         1 3XY       0.037950
     47 H16          4.1570    -3.1300     0.8970 h1         1 3XY       0.039200
     48 H17          4.1450    -2.8090    -0.8320 h1         1 3XY       0.039200
     49 H18          5.9310    -1.5060    -1.5580 ha         1 3XY       0.117000
     50 H19          8.2450     0.3070    -2.1630 ha         1 3XY       0.215000
     51 H20          8.0900     2.3250     1.5340 hn         1 3XY       0.361000
     52 H21          5.9090     1.0200     2.7580 ha         1 3XY       0.119000
     53 H22          4.2650    -0.7620     2.3160 ha         1 3XY       0.125000
     54 CAQ         -6.1900     1.6710     1.5290 c3         1 3XY      -0.076200
@<TRIPOS>BOND
     1     1     2 ar  
     2     1     5 ar  
     3     1    11 1   
     4     2     3 ar  
     5     2    12 1   
     6     3     4 ar  
     7     3    14 1   
     8     4    13 ar  
     9     5    13 ar  
    10     6     7 1   
    11     7     8 1   
    12     7     9 1   
    13     7    54 1   
    14    10    11 1   
    15    10    12 2   
    16    10    54 1   
    17    12    35 1   
    18    13    36 1   
    19    14    15 1   
    20    14    37 1   
    21    15    16 1   
    22    15    18 1   
    23    15    38 1   
    24    16    17 1   
    25    16    39 1   
    26    16    40 1   
    27    17    20 1   
    28    17    41 1   
    29    17    42 1   
    30    18    19 1   
    31    18    43 1   
    32    18    44 1   
    33    19    20 1   
    34    19    45 1   
    35    19    46 1   
    36    20    21 1   
    37    21    22 1   
    38    21    47 1   
    39    21    48 1   
    40    22    23 ar  
    41    22    32 ar  
    42    23    24 ar  
    43    23    49 1   
    44    24    25 1   
    45    24    30 ar  
    46    25    26 2   
    47    25    50 1   
    48    26    27 1   
    49    26    29 1   
    50    27    28 3   
    51    29    30 1   
    52    29    51 1   
    53    30    31 ar  
    54    31    32 ar  
    55    31    52 1   
    56    32    53 1   
    57    33    54 1   
    58    34    54 1   
@<TRIPOS>SUBSTRUCTURE
     1 3XY         1 TEMP              0 ****  ****    0 ROOT
