@<TRIPOS>MOLECULE
3XZ
   63    68     1     0     0
SMALL
abcg2


@<TRIPOS>ATOM
      1 N1          -8.0700    -0.0190    -1.2590 nb         1 3XZ      -0.316500
      2 N3          -6.0760     1.2950    -1.2880 nb         1 3XZ      -0.226500
      3 C4          -5.4680     0.2120    -0.8020 ca         1 3XZ       0.097000
      4 C5          -6.0650    -1.0090    -0.5290 ca         1 3XZ      -0.085600
      5 C6          -7.4470    -1.0990    -0.7760 ca         1 3XZ       0.436400
      6 C8          -4.0200    -1.2450    -0.0540 cc         1 3XZ       0.450700
      7 C15          6.1260    -0.6280     1.1590 ca         1 3XZ      -0.085600
      8 O3P          1.2750    -2.8420     1.3780 o          1 3XZ      -0.816500
      9 P           -0.0280    -2.2070     0.9960 p5         1 3XZ       1.403800
     10 O1P          0.0040    -1.7880    -0.5850 os         1 3XZ      -0.589400
     11 O2P         -1.3350    -2.9170     1.1850 o          1 3XZ      -0.816500
     12 O5          -0.0600    -0.7820     1.8030 os         1 3XZ      -0.589400
     13 C7          -1.5320     1.0320     1.0770 c5         1 3XZ       0.123300
     14 C3          -2.7100     1.9020     1.5210 c5         1 3XZ       0.132300
     15 O3          -2.2410     2.9630     2.3080 oh         1 3XZ      -0.704500
     16 C2          -3.3360     2.2980     0.1890 c5         1 3XZ      -0.162900
     17 C1          -3.0920     1.0550    -0.6500 c5         1 3XZ       0.330800
     18 O4          -1.8880     0.5190    -0.2080 os         1 3XZ      -0.424000
     19 N9          -4.1530     0.0500    -0.4770 na         1 3XZ      -0.315800
     20 N7          -5.1440    -1.9070    -0.0620 nd         1 3XZ      -0.570600
     21 C10         -7.3650     1.0870    -1.4840 ca         1 3XZ       0.156900
     22 N6          -8.1450    -2.2190    -0.5660 nv         1 3XZ      -1.070900
     23 C5A          1.1900    -1.5340    -1.2960 c3         1 3XZ       0.229600
     24 C4A          1.5660    -0.0690    -1.3570 c5         1 3XZ       0.123300
     25 C3A          2.7510     0.1700    -2.2960 c5         1 3XZ       0.132300
     26 O3A          2.2850     0.3960    -3.5980 oh         1 3XZ      -0.704500
     27 C2A          3.4470     1.3530    -1.6340 c5         1 3XZ      -0.162900
     28 C1A          3.2100     1.0640    -0.1610 c5         1 3XZ       0.330800
     29 O4A          1.9740     0.4320    -0.0840 os         1 3XZ      -0.424000
     30 N19          4.2380     0.1730     0.4000 na         1 3XZ      -0.315800
     31 C14          5.5680     0.4570     0.4990 ca         1 3XZ       0.097000
     32 N17          5.1650    -1.5500     1.4740 nc         1 3XZ      -0.570600
     33 C18          4.0560    -1.0370     1.0160 cd         1 3XZ       0.450700
     34 N13          6.2200     1.5400     0.0730 nb         1 3XZ      -0.226500
     35 C12          7.5110     1.4750     0.3450 ca         1 3XZ       0.156900
     36 N11          8.1790     0.5030     0.9610 nb         1 3XZ      -0.316500
     37 C16          7.5130    -0.5760     1.3860 ca         1 3XZ       0.436400
     38 N16          8.1810    -1.5600     1.9940 nv         1 3XZ      -1.070900
     39 H1          -3.0690    -1.6630     0.2470 h5         1 3XZ       0.140300
     40 H3          -2.1100    -0.7420     2.1480 h1         1 3XZ       0.039200
     41 H4          -1.1250     0.4030     3.0500 h1         1 3XZ       0.039200
     42 H5          -0.6390     1.6570     0.9600 h1         1 3XZ       0.087200
     43 H6          -3.4240     1.2870     2.0870 h1         1 3XZ       0.048200
     44 H7          -2.9980     3.3980     2.7110 ho         1 3XZ       0.500000
     45 H8          -4.3830     2.5850     0.2520 hc         1 3XZ       0.075450
     46 H9          -2.7770     3.1300    -0.2470 hc         1 3XZ       0.075450
     47 H10         -3.0260     1.2720    -1.7180 h2         1 3XZ       0.092700
     48 H11         -7.9300     1.9260    -1.8790 h5         1 3XZ       0.030100
     49 H12         -9.1460    -2.2100    -0.6590 hn         1 3XZ       0.498500
     50 H13         -7.7240    -3.0020    -0.0960 hn         1 3XZ       0.498500
     51 H14          2.0310    -2.1180    -0.9080 h1         1 3XZ       0.039200
     52 H15          1.0230    -1.8620    -2.3270 h1         1 3XZ       0.039200
     53 H16          0.7040     0.5170    -1.6970 h1         1 3XZ       0.087200
     54 H17          3.4180    -0.7040    -2.2690 h1         1 3XZ       0.048200
     55 H18          3.0330     0.3490    -4.2000 ho         1 3XZ       0.500000
     56 H19          4.4970     1.4640    -1.8960 hc         1 3XZ       0.075450
     57 H20          2.9290     2.2780    -1.8980 hc         1 3XZ       0.075450
     58 H21          3.2000     1.9670     0.4530 h2         1 3XZ       0.092700
     59 H22          3.0830    -1.5020     1.1110 h5         1 3XZ       0.140300
     60 H23          8.1090     2.3230     0.0280 h5         1 3XZ       0.030100
     61 H24          7.6920    -2.3340     2.4060 hn         1 3XZ       0.498500
     62 H25          9.1530    -1.4400     2.2230 hn         1 3XZ       0.498500
     63 C9          -1.2460    -0.0740     2.0710 c3         1 3XZ       0.229600
@<TRIPOS>BOND
     1     1     5 ar  
     2     1    21 ar  
     3     2     3 ar  
     4     2    21 ar  
     5     3     4 ar  
     6     3    19 1   
     7     4     5 ar  
     8     4    20 1   
     9     5    22 1   
    10     6    19 1   
    11     6    20 2   
    12     6    39 1   
    13     7    31 ar  
    14     7    32 1   
    15     7    37 ar  
    16     8     9 1   
    17     9    10 1   
    18     9    11 1   
    19     9    12 1   
    20    10    23 1   
    21    12    63 1   
    22    13    14 1   
    23    13    18 1   
    24    13    42 1   
    25    13    63 1   
    26    14    15 1   
    27    14    16 1   
    28    14    43 1   
    29    15    44 1   
    30    16    17 1   
    31    16    45 1   
    32    16    46 1   
    33    17    18 1   
    34    17    19 1   
    35    17    47 1   
    36    21    48 1   
    37    22    49 1   
    38    22    50 1   
    39    23    24 1   
    40    23    51 1   
    41    23    52 1   
    42    24    25 1   
    43    24    29 1   
    44    24    53 1   
    45    25    26 1   
    46    25    27 1   
    47    25    54 1   
    48    26    55 1   
    49    27    28 1   
    50    27    56 1   
    51    27    57 1   
    52    28    29 1   
    53    28    30 1   
    54    28    58 1   
    55    30    31 1   
    56    30    33 1   
    57    31    34 ar  
    58    32    33 2   
    59    33    59 1   
    60    34    35 ar  
    61    35    36 ar  
    62    35    60 1   
    63    36    37 ar  
    64    37    38 1   
    65    38    61 1   
    66    38    62 1   
    67    40    63 1   
    68    41    63 1   
@<TRIPOS>SUBSTRUCTURE
     1 3XZ         1 TEMP              0 ****  ****    0 ROOT
