@<TRIPOS>MOLECULE
3XZ
   63    68     1     0     0
SMALL
No Charge or Current Charge


@<TRIPOS>ATOM
      1 N1          -7.5380    -0.2370     0.8440 nb         1 3XZ      -0.316500
      2 N3          -5.7130     1.2300     0.2310 nb         1 3XZ      -0.226500
      3 C4          -5.1210     0.2070    -0.4190 ca         1 3XZ       0.097000
      4 C5          -5.6960    -1.0410    -0.4670 ca         1 3XZ      -0.085600
      5 C6          -6.9320    -1.2370     0.1850 ca         1 3XZ       0.436400
      6 C8          -3.8590    -1.2290    -1.5730 cc         1 3XZ       0.450700
      7 C15          6.5680    -0.5660     1.3060 ca         1 3XZ      -0.085600
      8 O3P          0.3060    -2.8660     1.6670 o          1 3XZ      -0.816500
      9 P           -0.8130    -2.0500     1.1120 p5         1 3XZ       1.403800
     10 O1P         -0.7470    -1.9720    -0.4980 os         1 3XZ      -0.589400
     11 O2P         -2.1260    -2.5890     1.5710 o          1 3XZ      -0.816500
     12 O5          -0.6670    -0.4870     1.4930 os         1 3XZ      -0.589400
     13 C7          -1.6000     1.4490     0.2950 c5         1 3XZ       0.123300
     14 C3          -2.6680     2.5990     0.3280 c5         1 3XZ       0.132300
     15 O3          -2.1060     3.8690     0.6680 oh         1 3XZ      -0.704500
     16 C2          -3.2090     2.6080    -1.1290 c5         1 3XZ      -0.162900
     17 C1          -3.0090     1.1370    -1.5660 c5         1 3XZ       0.330800
     18 O4          -1.7100     0.8590    -1.0280 os         1 3XZ      -0.424000
     19 N9          -3.9480     0.0950    -1.1280 na         1 3XZ      -0.315800
     20 N7          -4.9250    -1.9570    -1.1870 nd         1 3XZ      -0.570600
     21 C10         -6.8940     0.9540     0.8320 ca         1 3XZ       0.156900
     22 N6          -7.5790    -2.4340     0.1970 nv         1 3XZ      -1.070900
     23 C5A          0.4980    -1.9620    -1.2280 c3         1 3XZ       0.229600
     24 C4A          1.3440    -0.6850    -0.9450 c5         1 3XZ       0.123300
     25 C3A          2.3670    -0.3320    -2.0550 c5         1 3XZ       0.132300
     26 O3A          1.7710     0.1980    -3.2400 oh         1 3XZ      -0.704500
     27 C2A          3.1900     0.7380    -1.2990 c5         1 3XZ      -0.162900
     28 C1A          3.2020     0.1910     0.1620 c5         1 3XZ       0.330800
     29 O4A          2.2220    -0.8680     0.1840 os         1 3XZ      -0.424000
     30 N19          4.4820    -0.3380     0.6160 na         1 3XZ      -0.315800
     31 C14          5.6230     0.3550     0.9290 ca         1 3XZ       0.097000
     32 N17          6.0870    -1.8700     1.2620 nc         1 3XZ      -0.570600
     33 C18          4.8180    -1.6880     0.8410 cd         1 3XZ       0.450700
     34 N13          5.8810     1.6780     0.9110 nb         1 3XZ      -0.226500
     35 C12          7.1300     2.0440     1.2860 ca         1 3XZ       0.156900
     36 N11          8.1320     1.2200     1.6740 nb         1 3XZ      -0.316500
     37 C16          7.8450    -0.0910     1.6790 ca         1 3XZ       0.436400
     38 N16          8.8510    -0.9180     2.0730 nv         1 3XZ      -1.070900
     39 H1          -3.0220    -1.5830    -2.1690 h5         1 3XZ       0.140300
     40 H3          -2.7410    -0.1490     1.2490 h1         1 3XZ       0.039200
     41 H4          -1.9110     0.9270     2.3760 h1         1 3XZ       0.039200
     42 H5          -0.5880     1.8610     0.4020 h1         1 3XZ       0.087200
     43 H6          -3.4680     2.3440     1.0360 h1         1 3XZ       0.048200
     44 H7          -2.8390     4.5270     0.6400 ho         1 3XZ       0.500000
     45 H8          -4.2470     2.9480    -1.2090 hc         1 3XZ       0.075450
     46 H9          -2.6120     3.2650    -1.7720 hc         1 3XZ       0.075450
     47 H10         -2.9840     1.0660    -2.6620 h2         1 3XZ       0.092700
     48 H11         -7.3760     1.7750     1.3610 h5         1 3XZ       0.030100
     49 H12         -8.2860    -2.5860     0.9110 hn         1 3XZ       0.498500
     50 H13         -7.0440    -3.2480    -0.0980 hn         1 3XZ       0.498500
     51 H14          1.0970    -2.8520    -0.9960 h1         1 3XZ       0.039200
     52 H15          0.2780    -1.9940    -2.3030 h1         1 3XZ       0.039200
     53 H16          0.6770     0.1640    -0.7560 h1         1 3XZ       0.087200
     54 H17          2.9880    -1.2090    -2.2920 h1         1 3XZ       0.048200
     55 H18          2.5050     0.4320    -3.8540 ho         1 3XZ       0.500000
     56 H19          4.1970     0.8620    -1.7130 hc         1 3XZ       0.075450
     57 H20          2.7050     1.7200    -1.3290 hc         1 3XZ       0.075450
     58 H21          2.9210     0.9810     0.8710 h2         1 3XZ       0.092700
     59 H22          4.0930    -2.4790     0.6780 h5         1 3XZ       0.140300
     60 H23          7.3500     3.1100     1.2760 h5         1 3XZ       0.030100
     61 H24          8.5910    -1.8770     2.2950 hn         1 3XZ       0.498500
     62 H25          9.6220    -0.5200     2.6010 hn         1 3XZ       0.498500
     63 C9          -1.8040     0.3950     1.4220 c3         1 3XZ       0.229600
@<TRIPOS>BOND
     1     1     5 ar  
     2     1    21 ar  
     3     2     3 ar  
     4     2    21 ar  
     5     3     4 ar  
     6     3    19 1   
     7     4     5 ar  
     8     4    20 1   
     9     5    22 1   
    10     6    19 1   
    11     6    20 2   
    12     6    39 1   
    13     7    31 ar  
    14     7    32 1   
    15     7    37 ar  
    16     8     9 1   
    17     9    10 1   
    18     9    11 1   
    19     9    12 1   
    20    10    23 1   
    21    12    63 1   
    22    13    14 1   
    23    13    18 1   
    24    13    42 1   
    25    13    63 1   
    26    14    15 1   
    27    14    16 1   
    28    14    43 1   
    29    15    44 1   
    30    16    17 1   
    31    16    45 1   
    32    16    46 1   
    33    17    18 1   
    34    17    19 1   
    35    17    47 1   
    36    21    48 1   
    37    22    49 1   
    38    22    50 1   
    39    23    24 1   
    40    23    51 1   
    41    23    52 1   
    42    24    25 1   
    43    24    29 1   
    44    24    53 1   
    45    25    26 1   
    46    25    27 1   
    47    25    54 1   
    48    26    55 1   
    49    27    28 1   
    50    27    56 1   
    51    27    57 1   
    52    28    29 1   
    53    28    30 1   
    54    28    58 1   
    55    30    31 1   
    56    30    33 1   
    57    31    34 ar  
    58    32    33 2   
    59    33    59 1   
    60    34    35 ar  
    61    35    36 ar  
    62    35    60 1   
    63    36    37 ar  
    64    37    38 1   
    65    38    61 1   
    66    38    62 1   
    67    40    63 1   
    68    41    63 1   
@<TRIPOS>SUBSTRUCTURE
     1 3XZ         1 TEMP              0 ****  ****    0 ROOT
