@<TRIPOS>MOLECULE
3Y0
   96    99     1     0     0
SMALL
No Charge or Current Charge


@<TRIPOS>ATOM
      1 O2N         -2.5330     0.2670    -2.3700 o          1 3Y0      -0.842000
      2 PN          -2.0750    -1.0980    -1.9720 p5         1 3Y0       1.462800
      3 O1N         -1.7670    -1.9630    -3.1500 o          1 3Y0      -0.842000
      4 O3          -2.9910    -1.7450    -0.8640 os         1 3Y0      -0.701800
      5 PA          -4.2420    -2.4870    -1.4640 p5         1 3Y0       1.474800
      6 O5B         -5.0310    -2.7220    -0.0730 os         1 3Y0      -0.558400
      7 C5B         -5.8820    -1.7370     0.5400 c3         1 3Y0       0.216600
      8 C4B         -5.0710    -0.5150     1.0890 c5         1 3Y0       0.157300
      9 O4B         -5.2150     0.6210     0.1940 os         1 3Y0      -0.406000
     10 C1B         -6.2850     1.4780     0.6660 c5         1 3Y0       0.325300
     11 N9A         -7.2040     1.7730    -0.4380 na         1 3Y0      -0.293300
     12 C8A         -8.3670     1.0620    -0.7690 cc         1 3Y0       0.465700
     13 N7A         -9.0110     1.6320    -1.8090 nd         1 3Y0      -0.564100
     14 C5A         -8.2050     2.7300    -2.1250 ca         1 3Y0      -0.077600
     15 C6A         -8.3730     3.7080    -3.1290 ca         1 3Y0       0.430900
     16 N6A         -9.4250     3.7090    -3.9920 nv         1 3Y0      -1.074900
     17 N1A         -7.4920     4.7100    -3.2760 nb         1 3Y0      -0.328000
     18 C2A         -6.4460     4.7150    -2.4130 ca         1 3Y0       0.143900
     19 N3A         -6.2060     3.8200    -1.4250 nb         1 3Y0      -0.210000
     20 C4A         -7.1100     2.8270    -1.3030 ca         1 3Y0       0.106500
     21 C2B         -6.8640     0.7960     1.9620 c5         1 3Y0       0.067300
     22 O2B         -7.3410     1.7290     2.9540 oh         1 3Y0      -0.705000
     23 C3B         -5.6080     0.0240     2.4570 c5         1 3Y0       0.096300
     24 O3B         -4.6940     0.9120     3.1170 oh         1 3Y0      -0.713000
     25 O1A         -3.8920    -3.8270    -2.0220 o          1 3Y0      -0.861500
     26 O2A         -5.0770    -1.6810    -2.4030 o          1 3Y0      -0.861500
     27 O5D         -0.7590    -0.9600    -1.0540 os         1 3Y0      -0.588400
     28 C5D         -0.0100    -2.1490    -0.7560 c3         1 3Y0       0.222600
     29 C4D          1.0310    -1.8340     0.3500 c5         1 3Y0       0.128300
     30 C3D          1.9220    -3.0390     0.7580 c5         1 3Y0       0.115300
     31 O3D          2.8290    -3.4880    -0.2660 oh         1 3Y0      -0.714000
     32 C2D          2.5760    -2.4290     2.0480 c5         1 3Y0       0.151300
     33 C1D          1.2970    -1.7670     2.6880 c5         1 3Y0       0.323300
     34 O4D          0.3820    -1.4860     1.5990 os         1 3Y0      -0.386000
     35 S1           1.4850    -0.1610     3.6140 sh         1 3Y0      -0.488800
     36 O2D          3.5310    -1.3670     1.7280 os         1 3Y0      -0.425000
     37 C1           4.8730    -1.7460     1.3780 c3         1 3Y0       0.176600
     38 C2           5.7060    -0.4550     1.2660 c3         1 3Y0      -0.083400
     39 C3           7.1880    -0.7280     0.9270 c3         1 3Y0      -0.071400
     40 C4           8.0360     0.5580     0.8250 c3         1 3Y0      -0.076400
     41 C5           9.5180     0.2760     0.4910 c3         1 3Y0      -0.073400
     42 C6          10.3730     1.5590     0.3920 c3         1 3Y0      -0.075400
     43 C7          11.8540     1.2700     0.0590 c3         1 3Y0      -0.073400
     44 C8          12.7130     2.5500    -0.0440 c3         1 3Y0      -0.075400
     45 C9          14.1910     2.2570    -0.3830 c3         1 3Y0      -0.073400
     46 C10         15.0520     3.5360    -0.4930 c3         1 3Y0      -0.075400
     47 C11         16.5290     3.2410    -0.8360 c3         1 3Y0      -0.075400
     48 C12         17.3890     4.5200    -0.9490 c3         1 3Y0      -0.075400
     49 C13         18.8620     4.2270    -1.2950 c3         1 3Y0      -0.088100
     50 H2          -6.6460    -1.3910    -0.1680 h1         1 3Y0       0.009700
     51 H3          -6.4140    -2.2080     1.3760 h1         1 3Y0       0.009700
     52 H4          -4.0130    -0.7900     1.1770 h1         1 3Y0       0.092700
     53 H5          -5.8480     2.4440     0.9490 h2         1 3Y0       0.093700
     54 H6          -8.6840     0.1690    -0.2400 h5         1 3Y0       0.159800
     55 H7         -10.2060     3.0990    -3.7620 hn         1 3Y0       0.495000
     56 H8          -9.6450     4.5710    -4.4820 hn         1 3Y0       0.495000
     57 H9          -5.7250     5.5230    -2.5240 h5         1 3Y0       0.021100
     58 H10         -7.6590     0.0830     1.7030 h1         1 3Y0       0.073700
     59 H11         -7.9710     1.2480     3.5440 ho         1 3Y0       0.497000
     60 H12         -5.8840    -0.7990     3.1320 h1         1 3Y0       0.046700
     61 H13         -5.2700     1.6270     3.4840 ho         1 3Y0       0.501000
     62 H15         -0.6670    -2.9570    -0.4080 h1         1 3Y0       0.041200
     63 H16          0.5210    -2.5020    -1.6500 h1         1 3Y0       0.041200
     64 H17          1.6460    -0.9860     0.0200 h1         1 3Y0       0.074700
     65 H18          1.2710    -3.8780     1.0470 h1         1 3Y0       0.054700
     66 H19          3.2810    -4.2970     0.0720 ho         1 3Y0       0.513000
     67 H20          3.0380    -3.1720     2.7120 h1         1 3Y0       0.044700
     68 H21          0.8190    -2.4780     3.3740 h2         1 3Y0       0.066700
     69 H22          0.1540     0.0140     3.7980 hs         1 3Y0       0.204800
     70 H23          5.3060    -2.3930     2.1530 h1         1 3Y0       0.014200
     71 H24          4.9070    -2.2770     0.4200 h1         1 3Y0       0.014200
     72 H25          5.2670     0.1870     0.4930 hc         1 3Y0       0.058700
     73 H26          5.6450     0.0920     2.2160 hc         1 3Y0       0.058700
     74 H27          7.6180    -1.3820     1.6970 hc         1 3Y0       0.031200
     75 H28          7.2440    -1.2740    -0.0240 hc         1 3Y0       0.031200
     76 H29          7.6110     1.2110     0.0520 hc         1 3Y0       0.040700
     77 H30          7.9790     1.1050     1.7750 hc         1 3Y0       0.040700
     78 H31          9.9420    -0.3800     1.2630 hc         1 3Y0       0.033700
     79 H32          9.5760    -0.2700    -0.4600 hc         1 3Y0       0.033700
     80 H33          9.9500     2.2150    -0.3800 hc         1 3Y0       0.038200
     81 H34         10.3170     2.1040     1.3430 hc         1 3Y0       0.038200
     82 H35         12.2760     0.6140     0.8320 hc         1 3Y0       0.034700
     83 H36         11.9080     0.7230    -0.8910 hc         1 3Y0       0.034700
     84 H37         12.2890     3.2080    -0.8140 hc         1 3Y0       0.037700
     85 H38         12.6620     3.0970     0.9080 hc         1 3Y0       0.037700
     86 H39         14.6150     1.6020     0.3900 hc         1 3Y0       0.035700
     87 H40         14.2400     1.7070    -1.3320 hc         1 3Y0       0.035700
     88 H41         14.6270     4.1920    -1.2640 hc         1 3Y0       0.036700
     89 H42         15.0050     4.0850     0.4570 hc         1 3Y0       0.036700
     90 H43         16.9550     2.5870    -0.0630 hc         1 3Y0       0.035700
     91 H44         16.5750     2.6890    -1.7840 hc         1 3Y0       0.035700
     92 H45         16.9660     5.1770    -1.7210 hc         1 3Y0       0.036700
     93 H46         17.3490     5.0720    -0.0010 hc         1 3Y0       0.036700
     94 H47         19.4310     5.1630    -1.3650 hc         1 3Y0       0.029033
     95 H48         19.3250     3.6000    -0.5230 hc         1 3Y0       0.029033
     96 H49         18.9390     3.7060    -2.2580 hc         1 3Y0       0.029033
@<TRIPOS>BOND
     1     1     2 1   
     2     2     3 1   
     3     2     4 1   
     4     2    27 1   
     5     4     5 1   
     6     5     6 1   
     7     5    25 1   
     8     5    26 1   
     9     6     7 1   
    10     7     8 1   
    11     7    50 1   
    12     7    51 1   
    13     8     9 1   
    14     8    23 1   
    15     8    52 1   
    16     9    10 1   
    17    10    11 1   
    18    10    21 1   
    19    10    53 1   
    20    11    12 1   
    21    11    20 1   
    22    12    13 2   
    23    12    54 1   
    24    13    14 1   
    25    14    15 ar  
    26    14    20 ar  
    27    15    16 1   
    28    15    17 ar  
    29    16    55 1   
    30    16    56 1   
    31    17    18 ar  
    32    18    19 ar  
    33    18    57 1   
    34    19    20 ar  
    35    21    22 1   
    36    21    23 1   
    37    21    58 1   
    38    22    59 1   
    39    23    24 1   
    40    23    60 1   
    41    24    61 1   
    42    27    28 1   
    43    28    29 1   
    44    28    62 1   
    45    28    63 1   
    46    29    30 1   
    47    29    34 1   
    48    29    64 1   
    49    30    31 1   
    50    30    32 1   
    51    30    65 1   
    52    31    66 1   
    53    32    33 1   
    54    32    36 1   
    55    32    67 1   
    56    33    34 1   
    57    33    35 1   
    58    33    68 1   
    59    35    69 1   
    60    36    37 1   
    61    37    38 1   
    62    37    70 1   
    63    37    71 1   
    64    38    39 1   
    65    38    72 1   
    66    38    73 1   
    67    39    40 1   
    68    39    74 1   
    69    39    75 1   
    70    40    41 1   
    71    40    76 1   
    72    40    77 1   
    73    41    42 1   
    74    41    78 1   
    75    41    79 1   
    76    42    43 1   
    77    42    80 1   
    78    42    81 1   
    79    43    44 1   
    80    43    82 1   
    81    43    83 1   
    82    44    45 1   
    83    44    84 1   
    84    44    85 1   
    85    45    46 1   
    86    45    86 1   
    87    45    87 1   
    88    46    47 1   
    89    46    88 1   
    90    46    89 1   
    91    47    48 1   
    92    47    90 1   
    93    47    91 1   
    94    48    49 1   
    95    48    92 1   
    96    48    93 1   
    97    49    94 1   
    98    49    95 1   
    99    49    96 1   
@<TRIPOS>SUBSTRUCTURE
     1 3Y0         1 TEMP              0 ****  ****    0 ROOT
