@<TRIPOS>MOLECULE
3Y0
   96    99     1     0     0
SMALL
abcg2


@<TRIPOS>ATOM
      1 O2N         -2.3120     1.5400    -3.2320 o          1 3Y0      -0.842000
      2 PN          -2.0960     0.1850    -2.6410 p5         1 3Y0       1.462800
      3 O1N         -2.3740    -1.0730    -3.3990 o          1 3Y0      -0.842000
      4 O3          -2.9120     0.1510    -1.2090 os         1 3Y0      -0.701800
      5 PA          -3.8370    -1.0730    -0.6440 p5         1 3Y0       1.474800
      6 O5B         -4.1720    -0.2840     0.7620 os         1 3Y0      -0.558400
      7 C5B         -5.1530    -0.8350     1.6070 c3         1 3Y0       0.216600
      8 C4B         -5.8720     0.2920     2.3260 c5         1 3Y0       0.157300
      9 O4B         -6.4010     1.2360     1.3900 os         1 3Y0      -0.406000
     10 C1B         -7.7960     1.1840     1.3680 c5         1 3Y0       0.325300
     11 N9A         -8.2540     1.2650     0.0020 na         1 3Y0      -0.293300
     12 C8A         -7.7500     0.6020    -1.0870 cc         1 3Y0       0.465700
     13 N7A         -8.3930     0.8690    -2.1860 nd         1 3Y0      -0.564100
     14 C5A         -9.3710     1.7530    -1.8100 ca         1 3Y0      -0.077600
     15 C6A        -10.3810     2.4240    -2.5220 ca         1 3Y0       0.430900
     16 N6A        -10.5560     2.2760    -3.8380 nv         1 3Y0      -1.074900
     17 N1A        -11.1800     3.2560    -1.8450 nb         1 3Y0      -0.328000
     18 C2A        -10.9890     3.4150    -0.5370 ca         1 3Y0       0.143900
     19 N3A        -10.0860     2.8410     0.2370 nb         1 3Y0      -0.210000
     20 C4A         -9.2990     2.0160    -0.4510 ca         1 3Y0       0.106500
     21 C2B         -8.1760    -0.1170     2.0750 c5         1 3Y0       0.067300
     22 O2B         -9.4700    -0.0250     2.5890 oh         1 3Y0      -0.705000
     23 C3B         -7.0650    -0.2120     3.1260 c5         1 3Y0       0.096300
     24 O3B         -7.3040     0.6680     4.1930 oh         1 3Y0      -0.713000
     25 O1A         -3.0190    -2.2920    -0.3480 o          1 3Y0      -0.861500
     26 O2A         -5.0960    -1.2080    -1.4520 o          1 3Y0      -0.861500
     27 O5D         -0.5520     0.1910    -2.0980 os         1 3Y0      -0.588400
     28 C5D          0.0190    -1.0000    -1.5930 c3         1 3Y0       0.222600
     29 C4D          1.2940    -0.6630    -0.8650 c5         1 3Y0       0.128300
     30 C3D          2.0640    -1.8900    -0.3710 c5         1 3Y0       0.115300
     31 O3D          2.8280    -2.5460    -1.3390 oh         1 3Y0      -0.714000
     32 C2D          2.9430    -1.2620     0.7070 c5         1 3Y0       0.151300
     33 C1D          1.9840    -0.2240     1.3030 c5         1 3Y0       0.323300
     34 O4D          0.9990     0.0420     0.3310 os         1 3Y0      -0.386000
     35 S1           2.9400     1.2530     1.7690 sh         1 3Y0      -0.488800
     36 O2D          4.0350    -0.6150     0.1160 os         1 3Y0      -0.425000
     37 C1           5.3120    -1.0770     0.5050 c3         1 3Y0       0.176600
     38 C2           6.3560    -0.1430    -0.0700 c3         1 3Y0      -0.083400
     39 C3           7.7730    -0.5340     0.3300 c3         1 3Y0      -0.071400
     40 C4           8.8100     0.4650    -0.1670 c3         1 3Y0      -0.076400
     41 C5          10.2390     0.1150     0.2300 c3         1 3Y0      -0.073400
     42 C6          11.2460     1.1740    -0.2030 c3         1 3Y0      -0.075400
     43 C7          12.6820     0.8490     0.1860 c3         1 3Y0      -0.073400
     44 C8          13.6650     1.9490    -0.1960 c3         1 3Y0      -0.075400
     45 C9          15.1070     1.6390     0.1860 c3         1 3Y0      -0.073400
     46 C10         16.0740     2.7620    -0.1660 c3         1 3Y0      -0.075400
     47 C11         17.5180     2.4570     0.2100 c3         1 3Y0      -0.075400
     48 C12         18.4810     3.5900    -0.1260 c3         1 3Y0      -0.075400
     49 C13         19.9220     3.2730     0.2470 c3         1 3Y0      -0.088100
     50 H2          -5.8700    -1.4460     1.0470 h1         1 3Y0       0.009700
     51 H3          -4.6970    -1.4880     2.3610 h1         1 3Y0       0.009700
     52 H4          -5.1620     0.8180     2.9720 h1         1 3Y0       0.092700
     53 H5          -8.2440     2.0380     1.8890 h2         1 3Y0       0.093700
     54 H6          -6.8840    -0.0480    -1.0210 h5         1 3Y0       0.159800
     55 H7         -10.0420     1.5790    -4.3480 hn         1 3Y0       0.495000
     56 H8         -11.3400     2.7100    -4.2930 hn         1 3Y0       0.495000
     57 H9         -11.6670     4.1060    -0.0480 h5         1 3Y0       0.021100
     58 H10         -8.0780    -0.9540     1.3730 h1         1 3Y0       0.073700
     59 H11         -9.7870    -0.9120     2.7890 ho         1 3Y0       0.497000
     60 H12         -6.9180    -1.2430     3.4740 h1         1 3Y0       0.046700
     61 H13         -8.2200     0.5550     4.4720 ho         1 3Y0       0.501000
     62 H15         -0.6640    -1.5260    -0.9180 h1         1 3Y0       0.041200
     63 H16          0.2590    -1.6870    -2.4140 h1         1 3Y0       0.041200
     64 H17          1.9450    -0.0670    -1.5220 h1         1 3Y0       0.074700
     65 H18          1.3560    -2.5720     0.1210 h1         1 3Y0       0.054700
     66 H19          2.2550    -3.1470    -1.8240 ho         1 3Y0       0.513000
     67 H20          3.2600    -1.9790     1.4700 h1         1 3Y0       0.044700
     68 H21          1.4970    -0.6010     2.2040 h2         1 3Y0       0.066700
     69 H22          2.0230     1.7450     2.6120 hs         1 3Y0       0.204800
     70 H23          5.3950    -1.0930     1.6000 h1         1 3Y0       0.014200
     71 H24          5.4780    -2.1020     0.1510 h1         1 3Y0       0.014200
     72 H25          6.2730    -0.1280    -1.1620 hc         1 3Y0       0.058700
     73 H26          6.1490     0.8740     0.2770 hc         1 3Y0       0.058700
     74 H27          7.8390    -0.6060     1.4210 hc         1 3Y0       0.031200
     75 H28          8.0070    -1.5310    -0.0560 hc         1 3Y0       0.031200
     76 H29          8.7440     0.5450    -1.2580 hc         1 3Y0       0.040700
     77 H30          8.5620     1.4580     0.2240 hc         1 3Y0       0.040700
     78 H31         10.2940    -0.0120     1.3170 hc         1 3Y0       0.033700
     79 H32         10.5150    -0.8530    -0.2030 hc         1 3Y0       0.033700
     80 H33         11.1860     1.3110    -1.2880 hc         1 3Y0       0.038200
     81 H34         10.9620     2.1360     0.2390 hc         1 3Y0       0.038200
     82 H35         12.7360     0.6770     1.2670 hc         1 3Y0       0.034700
     83 H36         12.9860    -0.0920    -0.2850 hc         1 3Y0       0.034700
     84 H37         13.6060     2.1300    -1.2750 hc         1 3Y0       0.037700
     85 H38         13.3570     2.8860     0.2830 hc         1 3Y0       0.037700
     86 H39         15.1630     1.4370     1.2620 hc         1 3Y0       0.035700
     87 H40         15.4250     0.7150    -0.3110 hc         1 3Y0       0.035700
     88 H41         16.0150     2.9680    -1.2410 hc         1 3Y0       0.036700
     89 H42         15.7550     3.6820     0.3350 hc         1 3Y0       0.036700
     90 H43         17.5770     2.2400     1.2820 hc         1 3Y0       0.035700
     91 H44         17.8430     1.5440    -0.3010 hc         1 3Y0       0.035700
     92 H45         18.4200     3.8100    -1.1970 hc         1 3Y0       0.036700
     93 H46         18.1590     4.5010     0.3880 hc         1 3Y0       0.036700
     94 H47         20.5920     4.0980    -0.0000 hc         1 3Y0       0.029033
     95 H48         20.0200     3.0780     1.3170 hc         1 3Y0       0.029033
     96 H49         20.2800     2.3880    -0.2820 hc         1 3Y0       0.029033
@<TRIPOS>BOND
     1     1     2 1   
     2     2     3 1   
     3     2     4 1   
     4     2    27 1   
     5     4     5 1   
     6     5     6 1   
     7     5    25 1   
     8     5    26 1   
     9     6     7 1   
    10     7     8 1   
    11     7    50 1   
    12     7    51 1   
    13     8     9 1   
    14     8    23 1   
    15     8    52 1   
    16     9    10 1   
    17    10    11 1   
    18    10    21 1   
    19    10    53 1   
    20    11    12 1   
    21    11    20 1   
    22    12    13 2   
    23    12    54 1   
    24    13    14 1   
    25    14    15 ar  
    26    14    20 ar  
    27    15    16 1   
    28    15    17 ar  
    29    16    55 1   
    30    16    56 1   
    31    17    18 ar  
    32    18    19 ar  
    33    18    57 1   
    34    19    20 ar  
    35    21    22 1   
    36    21    23 1   
    37    21    58 1   
    38    22    59 1   
    39    23    24 1   
    40    23    60 1   
    41    24    61 1   
    42    27    28 1   
    43    28    29 1   
    44    28    62 1   
    45    28    63 1   
    46    29    30 1   
    47    29    34 1   
    48    29    64 1   
    49    30    31 1   
    50    30    32 1   
    51    30    65 1   
    52    31    66 1   
    53    32    33 1   
    54    32    36 1   
    55    32    67 1   
    56    33    34 1   
    57    33    35 1   
    58    33    68 1   
    59    35    69 1   
    60    36    37 1   
    61    37    38 1   
    62    37    70 1   
    63    37    71 1   
    64    38    39 1   
    65    38    72 1   
    66    38    73 1   
    67    39    40 1   
    68    39    74 1   
    69    39    75 1   
    70    40    41 1   
    71    40    76 1   
    72    40    77 1   
    73    41    42 1   
    74    41    78 1   
    75    41    79 1   
    76    42    43 1   
    77    42    80 1   
    78    42    81 1   
    79    43    44 1   
    80    43    82 1   
    81    43    83 1   
    82    44    45 1   
    83    44    84 1   
    84    44    85 1   
    85    45    46 1   
    86    45    86 1   
    87    45    87 1   
    88    46    47 1   
    89    46    88 1   
    90    46    89 1   
    91    47    48 1   
    92    47    90 1   
    93    47    91 1   
    94    48    49 1   
    95    48    92 1   
    96    48    93 1   
    97    49    94 1   
    98    49    95 1   
    99    49    96 1   
@<TRIPOS>SUBSTRUCTURE
     1 3Y0         1 TEMP              0 ****  ****    0 ROOT
