@<TRIPOS>MOLECULE
3Y1
   42    43     1     0     0
SMALL
abcg2


@<TRIPOS>ATOM
      1 C1          -4.7300     3.1530     1.2110 c1         1 3Y1       0.279900
      2 C2          -3.4250     3.0380     0.5520 c3         1 3Y1       0.175100
      3 C4          -3.4790     0.7100    -0.1040 c          1 3Y1       0.611100
      4 C6          -2.8740    -0.6860     0.0920 c6         1 3Y1       0.060400
      5 C8          -2.8830    -3.0740    -0.7610 c6         1 3Y1      -0.075900
      6 C9          -3.4280    -3.5790     0.5690 c6         1 3Y1      -0.077400
      7 C10         -3.0110    -2.6640     1.7120 c6         1 3Y1      -0.075900
      8 C11         -3.4020    -1.2120     1.4440 c6         1 3Y1      -0.084900
      9 C15          0.8020    -0.0310    -0.5440 ca         1 3Y1      -0.235600
     10 C16          1.7000    -0.0740    -1.6350 ca         1 3Y1       0.378000
     11 C20          1.3100     0.0400     0.7530 ca         1 3Y1      -0.044000
     12 N1          -5.7490     3.2520     1.7350 n1         1 3Y1      -0.449000
     13 N3          -2.9060     1.7020     0.6050 ns         1 3Y1      -0.503900
     14 O5          -4.4720     0.9070    -0.7820 o          1 3Y1      -0.575100
     15 C7          -3.3180    -1.6370    -1.0280 c6         1 3Y1      -0.084900
     16 N12         -1.4250    -0.5860     0.1850 ns         1 3Y1      -0.508900
     17 O14         -1.1700     0.5110    -1.7620 o          1 3Y1      -0.617100
     18 C17          3.0800    -0.0840    -1.3590 ca         1 3Y1      -0.186000
     19 C18          3.5330    -0.0250    -0.0590 ca         1 3Y1       0.054100
     20 C19          2.6650     0.0470     1.0240 ca         1 3Y1      -0.156000
     21 N21          1.2890    -0.1730    -2.9270 nv         1 3Y1      -1.086000
     22 BR2          5.3940    -0.0270     0.2570 br         1 3Y1      -0.092100
     23 H1          -3.5300     3.3930    -0.4750 h1         1 3Y1       0.078700
     24 H2          -2.7290     3.7070     1.0560 h1         1 3Y1       0.078700
     25 H3          -1.7900    -3.1490    -0.7690 hc         1 3Y1       0.041450
     26 H4          -3.2350    -3.7070    -1.5780 hc         1 3Y1       0.041450
     27 H5          -4.5210    -3.6170     0.5180 hc         1 3Y1       0.045200
     28 H6          -3.0870    -4.5980     0.7610 hc         1 3Y1       0.045200
     29 H7          -3.4760    -2.9810     2.6470 hc         1 3Y1       0.041450
     30 H8          -1.9310    -2.7520     1.8760 hc         1 3Y1       0.041450
     31 H9          -3.0540    -0.5730     2.2600 hc         1 3Y1       0.065200
     32 H10         -4.4920    -1.1370     1.4260 hc         1 3Y1       0.065200
     33 H11          0.6320     0.1220     1.5930 ha         1 3Y1       0.108000
     34 H12         -2.1090     1.5280     1.1950 hn         1 3Y1       0.326500
     35 H13         -4.4070    -1.6050    -1.0960 hc         1 3Y1       0.065200
     36 H14         -2.9360    -1.2910    -1.9880 hc         1 3Y1       0.065200
     37 H15         -0.9660    -1.1380     0.8920 hn         1 3Y1       0.323500
     38 H16          3.7750    -0.1320    -2.1870 ha         1 3Y1       0.131000
     39 H17          3.0220     0.1150     2.0410 ha         1 3Y1       0.135000
     40 H18          0.3600     0.1430    -3.1470 hn         1 3Y1       0.487000
     41 H19          1.9760     0.0030    -3.6410 hn         1 3Y1       0.487000
     42 C13         -0.6660    -0.0130    -0.7740 c          1 3Y1       0.620700
@<TRIPOS>BOND
     1     1     2 1   
     2     1    12 3   
     3     2    13 1   
     4     2    23 1   
     5     2    24 1   
     6     3     4 1   
     7     3    13 1   
     8     3    14 2   
     9     4     8 1   
    10     4    15 1   
    11     4    16 1   
    12     5     6 1   
    13     5    15 1   
    14     5    25 1   
    15     5    26 1   
    16     6     7 1   
    17     6    27 1   
    18     6    28 1   
    19     7     8 1   
    20     7    29 1   
    21     7    30 1   
    22     8    31 1   
    23     8    32 1   
    24     9    10 ar  
    25     9    11 ar  
    26     9    42 1   
    27    10    18 ar  
    28    10    21 1   
    29    11    20 ar  
    30    11    33 1   
    31    13    34 1   
    32    15    35 1   
    33    15    36 1   
    34    16    37 1   
    35    16    42 1   
    36    17    42 2   
    37    18    19 ar  
    38    18    38 1   
    39    19    20 ar  
    40    19    22 1   
    41    20    39 1   
    42    21    40 1   
    43    21    41 1   
@<TRIPOS>SUBSTRUCTURE
     1 3Y1         1 TEMP              0 ****  ****    0 ROOT
