@<TRIPOS>MOLECULE
3Y1
   42    43     1     0     0
SMALL
No Charge or Current Charge


@<TRIPOS>ATOM
      1 C1          -6.3460     2.7880    -0.0340 c1         1 3Y1       0.279900
      2 C2          -4.8810     2.8290     0.1070 c3         1 3Y1       0.175100
      3 C4          -2.9550     1.2320     0.3880 c          1 3Y1       0.611100
      4 C6          -2.5140    -0.2820     0.5030 c6         1 3Y1       0.060400
      5 C8          -3.0170    -2.7340    -0.2220 c6         1 3Y1      -0.075900
      6 C9          -3.2630    -3.1620     1.2430 c6         1 3Y1      -0.077400
      7 C10         -2.5040    -2.2430     2.2260 c6         1 3Y1      -0.075900
      8 C11         -2.8300    -0.7460     1.9660 c6         1 3Y1      -0.084900
      9 C15          1.1280    -0.4140    -0.8480 ca         1 3Y1      -0.235600
     10 C16          2.0190     0.1800    -1.7740 ca         1 3Y1       0.378000
     11 C20          1.6600    -1.3180     0.1080 ca         1 3Y1      -0.044000
     12 N1          -7.5050     2.7240    -0.1430 n1         1 3Y1      -0.449000
     13 N3          -4.3040     1.4820     0.2460 ns         1 3Y1      -0.503900
     14 O5          -2.1530     2.1590     0.3980 o          1 3Y1      -0.575100
     15 C7          -3.3610    -1.2330    -0.4210 c6         1 3Y1      -0.084900
     16 N12         -1.0580    -0.4730     0.2590 ns         1 3Y1      -0.508900
     17 O14         -0.9300     0.3660    -1.8450 o          1 3Y1      -0.617100
     18 C17          3.3880    -0.1190    -1.7400 ca         1 3Y1      -0.186000
     19 C18          3.8960    -1.0110    -0.7890 ca         1 3Y1       0.054100
     20 C19          3.0330    -1.6110     0.1350 ca         1 3Y1      -0.156000
     21 N21          1.5880     1.0690    -2.7140 nv         1 3Y1      -1.086000
     22 Br2          5.7660    -1.4100    -0.7510 br         1 3Y1      -0.092100
     23 H1          -4.4540     3.3180    -0.7770 h1         1 3Y1       0.078700
     24 H2          -4.6270     3.4270     0.9920 h1         1 3Y1       0.078700
     25 H3          -1.9710    -2.9270    -0.4990 hc         1 3Y1       0.041450
     26 H4          -3.6320    -3.3480    -0.8940 hc         1 3Y1       0.041450
     27 H5          -4.3400    -3.1250     1.4610 hc         1 3Y1       0.045200
     28 H6          -2.9520    -4.2060     1.3870 hc         1 3Y1       0.045200
     29 H7          -2.7740    -2.5060     3.2580 hc         1 3Y1       0.041450
     30 H8          -1.4230    -2.4210     2.1410 hc         1 3Y1       0.041450
     31 H9          -2.2670    -0.1260     2.6770 hc         1 3Y1       0.065200
     32 H10         -3.8910    -0.5680     2.1960 hc         1 3Y1       0.065200
     33 H11          1.0210    -1.8230     0.8290 ha         1 3Y1       0.108000
     34 H12         -4.9290     0.6850     0.2430 hn         1 3Y1       0.326500
     35 H13         -4.4350    -1.1050    -0.2340 hc         1 3Y1       0.065200
     36 H14         -3.2100    -0.9640    -1.4750 hc         1 3Y1       0.065200
     37 H15         -0.5030    -0.8440     1.0160 hn         1 3Y1       0.323500
     38 H16          4.0650     0.3460    -2.4510 ha         1 3Y1       0.131000
     39 H17          3.4250    -2.3090     0.8710 ha         1 3Y1       0.135000
     40 H18          0.5740     1.1230    -2.8400 hn         1 3Y1       0.487000
     41 H19          2.1600     1.2430    -3.5360 hn         1 3Y1       0.487000
     42 C13         -0.3580    -0.1150    -0.8750 c          1 3Y1       0.620700
@<TRIPOS>BOND
     1     1     2 1   
     2     1    12 3   
     3     2    13 1   
     4     2    23 1   
     5     2    24 1   
     6     3     4 1   
     7     3    13 1   
     8     3    14 2   
     9     4     8 1   
    10     4    15 1   
    11     4    16 1   
    12     5     6 1   
    13     5    15 1   
    14     5    25 1   
    15     5    26 1   
    16     6     7 1   
    17     6    27 1   
    18     6    28 1   
    19     7     8 1   
    20     7    29 1   
    21     7    30 1   
    22     8    31 1   
    23     8    32 1   
    24     9    10 ar  
    25     9    11 ar  
    26     9    42 1   
    27    10    18 ar  
    28    10    21 1   
    29    11    20 ar  
    30    11    33 1   
    31    13    34 1   
    32    15    35 1   
    33    15    36 1   
    34    16    37 1   
    35    16    42 1   
    36    17    42 2   
    37    18    19 ar  
    38    18    38 1   
    39    19    20 ar  
    40    19    22 1   
    41    20    39 1   
    42    21    40 1   
    43    21    41 1   
@<TRIPOS>SUBSTRUCTURE
     1 3Y1         1 TEMP              0 ****  ****    0 ROOT
