@<TRIPOS>MOLECULE
3Y2
   44    45     1     0     0
SMALL
bcc


@<TRIPOS>ATOM
      1 C1          -3.6560     3.4500     0.9320 c2         1 3Y2       0.397200
      2 C2          -2.6150     3.0450    -0.0720 c3         1 3Y2       0.041700
      3 C4          -2.6930     0.6150    -0.3810 c          1 3Y2       0.672100
      4 C6          -2.0910    -0.7320     0.0620 c6         1 3Y2       0.061400
      5 C7          -2.6670    -1.0650     1.4530 c6         1 3Y2      -0.081900
      6 C8          -2.2350    -2.4420     1.9520 c6         1 3Y2      -0.073400
      7 C9          -2.5750    -3.5370     0.9490 c6         1 3Y2      -0.077400
      8 C10         -2.0140    -3.2150    -0.4310 c6         1 3Y2      -0.073400
      9 C11         -2.4830    -1.8490    -0.9160 c6         1 3Y2      -0.081900
     10 N3          -2.1340     1.7050     0.1680 ns         1 3Y2      -0.566900
     11 N1          -3.5920     4.5570     1.5340 n2         1 3Y2      -0.746100
     12 O5          -3.6610     0.6720    -1.1230 o          1 3Y2      -0.594100
     13 N12         -0.6470    -0.6220     0.1950 ns         1 3Y2      -0.579900
     14 O14         -0.2800     0.1310    -1.8930 o          1 3Y2      -0.616100
     15 C15          1.6240    -0.3580    -0.5500 ca         1 3Y2      -0.244600
     16 C16          2.5290     0.5510    -1.1460 ca         1 3Y2       0.244600
     17 C17          3.8970     0.4080    -0.8580 ca         1 3Y2      -0.226000
     18 C18          4.3370    -0.6110    -0.0430 ca         1 3Y2       0.100400
     19 C19          3.4660    -1.5310     0.5260 ca         1 3Y2      -0.192000
     20 C20          2.1190    -1.3800     0.2590 ca         1 3Y2      -0.053000
     21 N21          2.1230     1.5880    -1.9270 nv         1 3Y2      -0.838200
     22 CL2          6.0350    -0.7540     0.2700 cl         1 3Y2      -0.108400
     23 H1          -4.4560     2.7200     1.0870 h4         1 3Y2      -0.030200
     24 H2          -3.0430     3.0970    -1.0750 h1         1 3Y2       0.078200
     25 H3          -1.7780     3.7410    -0.0330 h1         1 3Y2       0.078200
     26 H4          -2.3840    -0.2930     2.1740 hc         1 3Y2       0.063200
     27 H5          -3.7570    -1.0360     1.3770 hc         1 3Y2       0.063200
     28 H6          -1.1600    -2.4570     2.1610 hc         1 3Y2       0.040450
     29 H7          -2.7230    -2.6380     2.9090 hc         1 3Y2       0.040450
     30 H8          -2.1940    -4.4980     1.3020 hc         1 3Y2       0.043200
     31 H9          -3.6630    -3.6400     0.8820 hc         1 3Y2       0.043200
     32 H10         -0.9200    -3.2560    -0.4050 hc         1 3Y2       0.040450
     33 H11         -2.3280    -3.9750    -1.1500 hc         1 3Y2       0.040450
     34 H12         -3.5710    -1.8580    -1.0050 hc         1 3Y2       0.063200
     35 H13         -2.0940    -1.6390    -1.9120 hc         1 3Y2       0.063200
     36 H14         -1.3530     1.5990     0.7950 hn         1 3Y2       0.318500
     37 H15         -4.3840     4.6670     2.1620 hn         1 3Y2       0.376400
     38 H16         -0.2380    -0.8020     1.0970 hn         1 3Y2       0.321500
     39 H17          4.6040     1.1030    -1.2930 ha         1 3Y2       0.149000
     40 H18          3.8240    -2.3410     1.1450 ha         1 3Y2       0.152000
     41 H19          1.4370    -2.1080     0.6810 ha         1 3Y2       0.131000
     42 H20          1.2320     1.5040    -2.3850 hn         1 3Y2       0.431300
     43 H21          2.8300     2.0640    -2.4620 hn         1 3Y2       0.431300
     44 C13          0.1660    -0.2600    -0.8190 c          1 3Y2       0.692700
@<TRIPOS>BOND
     1     1     2 1   
     2     1    11 2   
     3     1    23 1   
     4     2    10 1   
     5     2    24 1   
     6     2    25 1   
     7     3     4 1   
     8     3    10 1   
     9     3    12 2   
    10     4     5 1   
    11     4     9 1   
    12     4    13 1   
    13     5     6 1   
    14     5    26 1   
    15     5    27 1   
    16     6     7 1   
    17     6    28 1   
    18     6    29 1   
    19     7     8 1   
    20     7    30 1   
    21     7    31 1   
    22     8     9 1   
    23     8    32 1   
    24     8    33 1   
    25     9    34 1   
    26     9    35 1   
    27    10    36 1   
    28    11    37 1   
    29    13    38 1   
    30    13    44 1   
    31    14    44 2   
    32    15    16 ar  
    33    15    20 ar  
    34    15    44 1   
    35    16    17 ar  
    36    16    21 1   
    37    17    18 ar  
    38    17    39 1   
    39    18    19 ar  
    40    18    22 1   
    41    19    20 ar  
    42    19    40 1   
    43    20    41 1   
    44    21    42 1   
    45    21    43 1   
@<TRIPOS>SUBSTRUCTURE
     1 3Y2         1 TEMP              0 ****  ****    0 ROOT
