@<TRIPOS>MOLECULE
3Y2
   44    45     1     0     0
SMALL
No Charge or Current Charge


@<TRIPOS>ATOM
      1 C1          -3.6910     3.6230     0.7930 c2         1 3Y2       0.397200
      2 C2          -2.5500     3.1910    -0.1150 c3         1 3Y2       0.041700
      3 C4          -2.8610     0.6790    -0.1740 c          1 3Y2       0.605100
      4 C6          -2.1930    -0.7180     0.1300 c6         1 3Y2       0.061400
      5 C7          -2.6480    -1.1740     1.5510 c6         1 3Y2      -0.081900
      6 C8          -2.1430    -2.5950     1.9280 c6         1 3Y2      -0.073400
      7 C9          -2.5450    -3.6400     0.8590 c6         1 3Y2      -0.077400
      8 C10         -2.0580    -3.2190    -0.5490 c6         1 3Y2      -0.073400
      9 C11         -2.5860    -1.8080    -0.9230 c6         1 3Y2      -0.081900
     10 N3          -2.1150     1.8020     0.1280 ns         1 3Y2      -0.499900
     11 N1          -3.5320     3.9140     2.0370 n2         1 3Y2      -0.746100
     12 O5          -3.9460     0.7830    -0.7360 o          1 3Y2      -0.594100
     13 N12         -0.7030    -0.6230     0.1830 ns         1 3Y2      -0.512900
     14 O14         -0.3000     0.2610    -1.8670 o          1 3Y2      -0.616100
     15 C15          1.6220    -0.2740    -0.5100 ca         1 3Y2      -0.244600
     16 C16          2.5820     0.4560    -1.2500 ca         1 3Y2       0.383000
     17 C17          3.9470     0.3360    -0.9660 ca         1 3Y2      -0.208000
     18 C18          4.3830    -0.5090     0.0580 ca         1 3Y2       0.192000
     19 C19          3.4540    -1.2440     0.8020 ca         1 3Y2      -0.174000
     20 C20          2.0830    -1.1310     0.5230 ca         1 3Y2      -0.035000
     21 N21          2.2180     1.3090    -2.2470 nv         1 3Y2      -1.087000
     22 Cl2          6.1000    -0.6520     0.4090 cl         1 3Y2      -0.200000
     23 H1          -4.6810     3.6820     0.3480 h4         1 3Y2      -0.030200
     24 H2          -2.8660     3.2880    -1.1610 h1         1 3Y2       0.078200
     25 H3          -1.6940     3.8620     0.0360 h1         1 3Y2       0.078200
     26 H4          -2.3120    -0.4500     2.3070 hc         1 3Y2       0.063200
     27 H5          -3.7470    -1.1660     1.5980 hc         1 3Y2       0.063200
     28 H6          -1.0520    -2.5940     2.0540 hc         1 3Y2       0.040450
     29 H7          -2.5600    -2.8880     2.9020 hc         1 3Y2       0.040450
     30 H8          -2.1270    -4.6210     1.1200 hc         1 3Y2       0.043200
     31 H9          -3.6370    -3.7590     0.8510 hc         1 3Y2       0.043200
     32 H10         -0.9600    -3.2370    -0.5860 hc         1 3Y2       0.040450
     33 H11         -2.4020    -3.9510    -1.2920 hc         1 3Y2       0.040450
     34 H12         -3.6810    -1.8580    -1.0050 hc         1 3Y2       0.063200
     35 H13         -2.2270    -1.5300    -1.9220 hc         1 3Y2       0.063200
     36 H14         -1.2130     1.6380     0.5600 hn         1 3Y2       0.318500
     37 H15         -4.4440     4.1760     2.4410 hn         1 3Y2       0.376400
     38 H16         -0.2490    -0.9470     1.0260 hn         1 3Y2       0.321500
     39 H17          4.6770     0.9050    -1.5340 ha         1 3Y2       0.131000
     40 H18          3.7970    -1.9060     1.5930 ha         1 3Y2       0.134000
     41 H19          1.3950    -1.7370     1.1090 ha         1 3Y2       0.113000
     42 H20          1.2500     1.2320    -2.5670 hn         1 3Y2       0.486500
     43 H21          2.9070     1.5840    -2.9440 hn         1 3Y2       0.486500
     44 C13          0.1420    -0.1680    -0.8100 c          1 3Y2       0.625700
@<TRIPOS>BOND
     1     1     2 1   
     2     1    11 2   
     3     1    23 1   
     4     2    10 1   
     5     2    24 1   
     6     2    25 1   
     7     3     4 1   
     8     3    10 1   
     9     3    12 2   
    10     4     5 1   
    11     4     9 1   
    12     4    13 1   
    13     5     6 1   
    14     5    26 1   
    15     5    27 1   
    16     6     7 1   
    17     6    28 1   
    18     6    29 1   
    19     7     8 1   
    20     7    30 1   
    21     7    31 1   
    22     8     9 1   
    23     8    32 1   
    24     8    33 1   
    25     9    34 1   
    26     9    35 1   
    27    10    36 1   
    28    11    37 1   
    29    13    38 1   
    30    13    44 1   
    31    14    44 2   
    32    15    16 ar  
    33    15    20 ar  
    34    15    44 1   
    35    16    17 ar  
    36    16    21 1   
    37    17    18 ar  
    38    17    39 1   
    39    18    19 ar  
    40    18    22 1   
    41    19    20 ar  
    42    19    40 1   
    43    20    41 1   
    44    21    42 1   
    45    21    43 1   
@<TRIPOS>SUBSTRUCTURE
     1 3Y2         1 TEMP              0 ****  ****    0 ROOT
