@<TRIPOS>MOLECULE
3Y3
   64    68     1     0     0
SMALL
No Charge or Current Charge


@<TRIPOS>ATOM
      1 C13          7.3970    -1.6470    -0.0290 ca         1 3Y3      -0.031000
      2 C16          7.0130     0.7000    -0.3960 ca         1 3Y3      -0.014200
      3 C15          7.8570    -0.3550    -0.2980 ca         1 3Y3      -0.255900
      4 C19          9.1580     0.2000    -0.5190 cc         1 3Y3       0.548800
      5 C21         -1.9760     2.3940     2.3700 ca         1 3Y3      -0.100500
      6 C22         -0.9610     2.5870     1.4110 ca         1 3Y3      -0.082300
      7 C23         -1.1230     3.5810     0.4250 ca         1 3Y3      -0.100500
      8 C24         -2.2830     4.3740     0.4010 ca         1 3Y3      -0.109500
      9 C11          5.0930    -0.7270     0.0370 ca         1 3Y3      -0.062500
     10 C12          5.6290     0.5650    -0.2360 ca         1 3Y3      -0.112000
     11 C34         -7.3360    -1.7730     0.7750 ca         1 3Y3       0.118000
     12 C27          0.2930     1.7160     1.4230 c3         1 3Y3      -0.047100
     13 C33         -7.8560    -0.5190     1.1220 ca         1 3Y3      -0.097000
     14 C1          -4.2080    -0.8390    -1.2220 c3         1 3Y3       0.153300
     15 N2          -3.0320    -0.7450    -0.3570 ns         1 3Y3      -0.520900
     16 C3           0.3000     0.6590     0.2920 c3         1 3Y3       0.090400
     17 N4          -0.9640    -0.1080     0.3180 ns         1 3Y3      -0.534900
     18 C5           1.5470    -0.2090     0.3110 cc         1 3Y3       0.405800
     19 N6           1.5460    -1.5620     0.5280 na         1 3Y3      -0.281500
     20 C7           2.8450    -2.0010     0.4700 cc         1 3Y3      -0.005000
     21 C8           3.6160    -0.8780     0.2090 cd         1 3Y3       0.323500
     22 N9           2.7810     0.2270     0.1120 nd         1 3Y3      -0.675000
     23 C14          6.0050    -1.8230     0.1370 ca         1 3Y3      -0.149000
     24 N17          7.7850     1.8170    -0.6610 na         1 3Y3      -0.069400
     25 N18          9.1550     1.5070    -0.7430 nd         1 3Y3      -0.581100
     26 N20         10.3010    -0.4990    -0.5280 nv         1 3Y3      -0.964200
     27 C25         -3.2900     4.1780     1.3610 ca         1 3Y3      -0.119000
     28 C26         -3.1370     3.1860     2.3440 ca         1 3Y3      -0.109500
     29 C28         -1.8560    -0.1560    -0.7170 c          1 3Y3       0.648100
     30 O29         -1.6280     0.2810    -1.8310 o          1 3Y3      -0.621100
     31 C30         -5.4900    -0.6950    -0.4080 ca         1 3Y3      -0.077300
     32 C31         -6.0130     0.5780    -0.0550 ca         1 3Y3      -0.057300
     33 C32         -7.1970     0.6510     0.7090 ca         1 3Y3      -0.108000
     34 C35         -6.1590    -1.8610     0.0160 ca         1 3Y3      -0.101000
     35 C37         -5.3320     1.8820    -0.4760 c3         1 3Y3       0.195100
     36 N38         -5.7810     2.3240    -1.8120 n8         1 3Y3      -0.998200
     37 H46          8.0820    -2.4890     0.0520 ha         1 3Y3       0.115000
     38 H51         -1.8690     1.6270     3.1340 ha         1 3Y3       0.112500
     39 H52         -0.3500     3.7380    -0.3230 ha         1 3Y3       0.112500
     40 H53         -2.4010     5.1400    -0.3630 ha         1 3Y3       0.113000
     41 H45          4.9900     1.4400    -0.3230 ha         1 3Y3       0.137000
     42 H57          1.1830     2.3490     1.3260 hc         1 3Y3       0.070200
     43 H56          0.3920     1.2040     2.3880 hc         1 3Y3       0.070200
     44 H59         -8.7670    -0.4530     1.7110 ha         1 3Y3       0.131000
     45 H40         -4.1680    -0.0630    -1.9980 h1         1 3Y3       0.073700
     46 H39         -4.1940    -1.8120    -1.7310 h1         1 3Y3       0.073700
     47 H41         -3.1160    -1.0720     0.5960 hn         1 3Y3       0.305500
     48 H42          0.3420     1.2150    -0.6540 h1         1 3Y3       0.111700
     49 H43         -1.2780    -0.4780     1.2060 hn         1 3Y3       0.301500
     50 H44          0.7230    -2.1260     0.6900 hn         1 3Y3       0.371000
     51 H47          5.6600    -2.8250     0.3460 ha         1 3Y3       0.117000
     52 H48          7.4400     2.7690    -0.7900 hn         1 3Y3       0.377000
     53 H49         10.2330    -1.5040    -0.6380 hn         1 3Y3       0.446000
     54 H50         11.1140    -0.0450    -0.9270 hn         1 3Y3       0.446000
     55 H54         -4.1880     4.7920     1.3420 ha         1 3Y3       0.111000
     56 H55         -3.9180     3.0310     3.0860 ha         1 3Y3       0.113000
     57 H58         -7.6080     1.6200     0.9840 ha         1 3Y3       0.115000
     58 H60         -5.7660    -2.8420    -0.2420 ha         1 3Y3       0.129000
     59 H62         -5.5720     2.6700     0.2510 h1         1 3Y3       0.038200
     60 H61         -4.2390     1.7650    -0.4830 h1         1 3Y3       0.038200
     61 H64         -6.7900     2.5060    -1.7750 hn         1 3Y3       0.401500
     62 H63         -5.3730     3.2440    -2.0110 hn         1 3Y3       0.401500
     63 Cl           3.2650    -3.6730     0.6940 cl         1 3Y3      -0.128000
     64 Cl1         -8.1570    -3.2390     1.2950 cl         1 3Y3      -0.202000
@<TRIPOS>BOND
     1     1     3 ar  
     2     1    23 ar  
     3     1    37 1   
     4     2     3 ar  
     5     2    10 ar  
     6     2    24 1   
     7     3     4 1   
     8     4    25 2   
     9     4    26 1   
    10     5     6 ar  
    11     5    28 ar  
    12     5    38 1   
    13     6     7 ar  
    14     6    12 1   
    15     7     8 ar  
    16     7    39 1   
    17     8    27 ar  
    18     8    40 1   
    19     9    10 ar  
    20     9    21 1   
    21     9    23 ar  
    22    10    41 1   
    23    11    13 ar  
    24    11    34 ar  
    25    11    64 1   
    26    12    16 1   
    27    12    42 1   
    28    12    43 1   
    29    13    33 ar  
    30    13    44 1   
    31    14    15 1   
    32    14    31 1   
    33    14    45 1   
    34    14    46 1   
    35    15    29 1   
    36    15    47 1   
    37    16    17 1   
    38    16    18 1   
    39    16    48 1   
    40    17    29 1   
    41    17    49 1   
    42    18    19 1   
    43    18    22 2   
    44    19    20 1   
    45    19    50 1   
    46    20    21 2   
    47    20    63 1   
    48    21    22 1   
    49    23    51 1   
    50    24    25 1   
    51    24    52 1   
    52    26    53 1   
    53    26    54 1   
    54    27    28 ar  
    55    27    55 1   
    56    28    56 1   
    57    29    30 2   
    58    31    32 ar  
    59    31    34 ar  
    60    32    33 ar  
    61    32    35 1   
    62    33    57 1   
    63    34    58 1   
    64    35    36 1   
    65    35    59 1   
    66    35    60 1   
    67    36    61 1   
    68    36    62 1   
@<TRIPOS>SUBSTRUCTURE
     1 3Y3         1 TEMP              0 ****  ****    0 ROOT
