@<TRIPOS>MOLECULE
3Y3
   64    68     1     0     0
SMALL
bcc


@<TRIPOS>ATOM
      1 C13          7.1020    -1.6600     0.5180 ca         1 3Y3      -0.049000
      2 C16          6.9310     0.6050    -0.3260 ca         1 3Y3      -0.014200
      3 C15          7.7180    -0.4740     0.1120 ca         1 3Y3      -0.255900
      4 C19          9.0600     0.0080     0.0170 cc         1 3Y3       0.548800
      5 C21         -1.7970     2.8940     1.8130 ca         1 3Y3      -0.118500
      6 C22         -0.8030     2.9190     0.8390 ca         1 3Y3      -0.082300
      7 C23         -0.9320     3.8190    -0.2180 ca         1 3Y3      -0.118500
      8 C24         -2.0220     4.6720    -0.2990 ca         1 3Y3      -0.127500
      9 C11          4.9400    -0.6610     0.0000 ca         1 3Y3      -0.062500
     10 C12          5.5370     0.5270    -0.3860 ca         1 3Y3      -0.130000
     11 C34         -7.3050    -2.2950     0.5210 ca         1 3Y3       0.026400
     12 C27          0.3680     1.9810     0.9020 c3         1 3Y3      -0.047100
     13 C33         -7.7800    -1.3040     1.3590 ca         1 3Y3      -0.115000
     14 C1          -4.3110    -0.6800    -1.1100 c3         1 3Y3       0.153300
     15 N2          -3.1140    -0.5620    -0.3070 ns         1 3Y3      -0.587900
     16 C3           0.2350     0.8380    -0.1140 c3         1 3Y3       0.090400
     17 N4          -0.9500     0.0500     0.1070 ns         1 3Y3      -0.601900
     18 C5           1.4520    -0.0400    -0.0980 cc         1 3Y3       0.405800
     19 N6           1.3860    -1.3790    -0.2340 na         1 3Y3      -0.281900
     20 C7           2.6640    -1.8500    -0.2130 cc         1 3Y3      -0.111200
     21 C8           3.4820    -0.7600    -0.0600 cd         1 3Y3       0.388800
     22 N9           2.6910     0.3590     0.0080 nd         1 3Y3      -0.675000
     23 C14          5.7300    -1.7450     0.4600 ca         1 3Y3      -0.167000
     24 N17          7.7900     1.5990    -0.6250 na         1 3Y3      -0.019100
     25 N18          9.0790     1.2370    -0.4320 nd         1 3Y3      -0.581100
     26 N20         10.1980    -0.6660     0.4030 nv         1 3Y3      -0.853800
     27 C25         -3.0070     4.6410     0.6820 ca         1 3Y3      -0.137000
     28 C26         -2.8890     3.7510     1.7400 ca         1 3Y3      -0.127500
     29 C28         -2.0110     0.0820    -0.7610 c          1 3Y3       0.782100
     30 O29         -1.9580     0.6270    -1.8550 o          1 3Y3      -0.621100
     31 C30         -5.5260    -0.8630    -0.2390 ca         1 3Y3      -0.077300
     32 C31         -5.9910     0.1590     0.6030 ca         1 3Y3      -0.057300
     33 C32         -7.1120    -0.0860     1.3860 ca         1 3Y3      -0.126000
     34 C35         -6.1860    -2.0840    -0.2700 ca         1 3Y3      -0.119000
     35 C37         -5.3250     1.5100     0.6590 c3         1 3Y3       0.195100
     36 N38         -5.4870     2.2310    -0.5950 n8         1 3Y3      -0.887800
     37 H46          7.6810    -2.4990     0.8840 ha         1 3Y3       0.133000
     38 H51         -1.7170     2.2020     2.6430 ha         1 3Y3       0.130500
     39 H52         -0.1680     3.8560    -0.9870 ha         1 3Y3       0.130500
     40 H53         -2.1020     5.3660    -1.1260 ha         1 3Y3       0.131000
     41 H45          4.9420     1.3630    -0.7310 ha         1 3Y3       0.155000
     42 H57          1.2980     2.5150     0.6990 hc         1 3Y3       0.070200
     43 H56          0.4610     1.5570     1.9050 hc         1 3Y3       0.070200
     44 H59         -8.6520    -1.4660     1.9770 ha         1 3Y3       0.149000
     45 H40         -4.4210     0.2320    -1.6950 h1         1 3Y3       0.073700
     46 H39         -4.2390    -1.5180    -1.8110 h1         1 3Y3       0.073700
     47 H41         -3.0330    -1.1660     0.4950 hn         1 3Y3       0.305500
     48 H42          0.1500     1.2710    -1.1140 h1         1 3Y3       0.111700
     49 H43         -1.1320    -0.2210     1.0620 hn         1 3Y3       0.301500
     50 H44          0.5450    -1.9290    -0.3290 hn         1 3Y3       0.320700
     51 H47          5.2510    -2.6510     0.8010 ha         1 3Y3       0.135000
     52 H48          7.5820     2.5090    -0.9980 hn         1 3Y3       0.326700
     53 H49         10.1770    -1.6550     0.2040 hn         1 3Y3       0.390800
     54 H50         11.0510    -0.2550     0.0550 hn         1 3Y3       0.390800
     55 H54         -3.8540     5.3130     0.6260 ha         1 3Y3       0.129000
     56 H55         -3.6500     3.7180     2.5090 ha         1 3Y3       0.131000
     57 H58         -7.4810     0.6950     2.0390 ha         1 3Y3       0.133000
     58 H60         -5.8210    -2.8730    -0.9160 ha         1 3Y3       0.147000
     59 H62         -5.7160     2.0530     1.5290 h1         1 3Y3       0.038200
     60 H61         -4.2570     1.3820     0.8340 h1         1 3Y3       0.038200
     61 H64         -6.4130     2.6380    -0.6400 hn         1 3Y3       0.346300
     62 H63         -4.8330     3.0020    -0.6200 hn         1 3Y3       0.346300
     63 CL           2.9770    -3.5100    -0.4190 cl         1 3Y3      -0.036400
     64 CL1         -8.1120    -3.8300     0.4580 cl         1 3Y3      -0.110400
@<TRIPOS>BOND
     1     1     3 ar  
     2     1    23 ar  
     3     1    37 1   
     4     2     3 ar  
     5     2    10 ar  
     6     2    24 1   
     7     3     4 1   
     8     4    25 2   
     9     4    26 1   
    10     5     6 ar  
    11     5    28 ar  
    12     5    38 1   
    13     6     7 ar  
    14     6    12 1   
    15     7     8 ar  
    16     7    39 1   
    17     8    27 ar  
    18     8    40 1   
    19     9    10 ar  
    20     9    21 1   
    21     9    23 ar  
    22    10    41 1   
    23    11    13 ar  
    24    11    34 ar  
    25    11    64 1   
    26    12    16 1   
    27    12    42 1   
    28    12    43 1   
    29    13    33 ar  
    30    13    44 1   
    31    14    15 1   
    32    14    31 1   
    33    14    45 1   
    34    14    46 1   
    35    15    29 1   
    36    15    47 1   
    37    16    17 1   
    38    16    18 1   
    39    16    48 1   
    40    17    29 1   
    41    17    49 1   
    42    18    19 1   
    43    18    22 2   
    44    19    20 1   
    45    19    50 1   
    46    20    21 2   
    47    20    63 1   
    48    21    22 1   
    49    23    51 1   
    50    24    25 1   
    51    24    52 1   
    52    26    53 1   
    53    26    54 1   
    54    27    28 ar  
    55    27    55 1   
    56    28    56 1   
    57    29    30 2   
    58    31    32 ar  
    59    31    34 ar  
    60    32    33 ar  
    61    32    35 1   
    62    33    57 1   
    63    34    58 1   
    64    35    36 1   
    65    35    59 1   
    66    35    60 1   
    67    36    61 1   
    68    36    62 1   
@<TRIPOS>SUBSTRUCTURE
     1 3Y3         1 TEMP              0 ****  ****    0 ROOT
