@<TRIPOS>MOLECULE
3Y4
   68    72     1     0     0
SMALL
abcg2


@<TRIPOS>ATOM
      1 C17          3.2630    -0.9890     1.0340 c3         1 3Y4      -0.027100
      2 C16          3.8130    -2.2250     0.3790 ca         1 3Y4      -0.038300
      3 C20          2.3690    -0.2180     0.0680 c3         1 3Y4      -0.159400
      4 C23          1.6810     0.9630     0.7200 c          1 3Y4       0.604100
      5 C12          5.8530    -0.3490    -1.8060 cc         1 3Y4       0.386400
      6 C27          0.1650     2.8440     0.2360 c3         1 3Y4       0.083400
      7 C33          3.1480     3.4120    -1.2190 ca         1 3Y4      -0.108000
      8 CL1          2.7300    -6.0610     0.1310 cl         1 3Y4      -0.178000
      9 C2           3.5910    -4.5800    -0.0980 ca         1 3Y4       0.133000
     10 C3           4.7070    -4.5630    -0.9180 ca         1 3Y4      -0.097000
     11 C5           5.3860    -3.3680    -1.0810 ca         1 3Y4      -0.090000
     12 C7           4.9390    -2.2210    -0.4420 ca         1 3Y4      -0.011200
     13 N8           5.6630    -1.0200    -0.6650 na         1 3Y4       0.004500
     14 N9           6.3640    -0.4130     0.2890 nc         1 3Y4      -0.184800
     15 N10          6.9390     0.5810    -0.2560 nd         1 3Y4      -0.041000
     16 N11          6.6520     0.6530    -1.5580 nd         1 3Y4      -0.386000
     17 C14          3.1480    -3.4360     0.5440 ca         1 3Y4      -0.102000
     18 O24          1.9120     1.3160     1.8620 o          1 3Y4      -0.573100
     19 N25          0.7730     1.5740    -0.0790 ns         1 3Y4      -0.521900
     20 C29          0.7870     3.9940    -0.5720 c3         1 3Y4      -0.040100
     21 C32          2.2710     4.0550    -0.3490 ca         1 3Y4      -0.093300
     22 C35          4.5130     3.3950    -0.9700 ca         1 3Y4      -0.108500
     23 C37          5.0230     4.0290     0.1550 ca         1 3Y4      -0.097000
     24 C39          4.1590     4.6870     1.0210 ca         1 3Y4      -0.108500
     25 C41          2.7950     4.6960     0.7710 ca         1 3Y4      -0.108000
     26 C43         -1.3160     2.7600     0.0260 cc         1 3Y4       0.395800
     27 N44         -2.0050     1.6090     0.1340 na         1 3Y4      -0.277500
     28 C46         -3.3370     1.8690    -0.0620 cc         1 3Y4      -0.127000
     29 C47         -3.3540     3.2220    -0.2910 cd         1 3Y4       0.343000
     30 CL2         -4.7140     4.1940    -0.6700 cl         1 3Y4      -0.137000
     31 N49         -2.1170     3.7630    -0.2400 nd         1 3Y4      -0.656000
     32 C50         -4.3580     0.8310    -0.0530 ca         1 3Y4      -0.039000
     33 C51         -4.0520    -0.4700    -0.4500 ca         1 3Y4      -0.066500
     34 C53         -4.9970    -1.4830    -0.4430 ca         1 3Y4      -0.152000
     35 C55         -6.3050    -1.2100    -0.0410 ca         1 3Y4       0.006000
     36 C56         -6.6200     0.0930     0.3560 ca         1 3Y4      -0.152000
     37 C58         -5.6670     1.0910     0.3550 ca         1 3Y4      -0.066500
     38 N60         -7.3360    -2.1450     0.0050 ns         1 3Y4      -0.138000
     39 C62         -7.3090    -3.4490    -0.3770 c          1 3Y4       0.646100
     40 O63         -6.3540    -4.0440    -0.8220 o          1 3Y4      -0.522000
     41 O64         -8.5100    -3.9920    -0.1880 os         1 3Y4      -0.457100
     42 C65         -8.6640    -5.3620    -0.5500 c3         1 3Y4       0.170900
     43 H1           2.6850    -1.2890     1.9080 hc         1 3Y4       0.082700
     44 H2           4.0650    -0.3490     1.4020 hc         1 3Y4       0.082700
     45 H3           2.9440     0.1530    -0.7850 hc         1 3Y4       0.058700
     46 H4           1.6090    -0.8810    -0.3560 hc         1 3Y4       0.058700
     47 H5           5.4060    -0.6140    -2.7490 h5         1 3Y4       0.076100
     48 H6           0.3500     3.0290     1.2980 h1         1 3Y4       0.106700
     49 H8           5.0510    -5.4590    -1.4150 ha         1 3Y4       0.142000
     50 H9           6.2700    -3.3310    -1.7040 ha         1 3Y4       0.135000
     51 H10          2.2710    -3.4760     1.1770 ha         1 3Y4       0.140000
     52 H11          0.7110     1.2640    -1.0380 hn         1 3Y4       0.307500
     53 H12          0.5640     3.8500    -1.6320 hc         1 3Y4       0.069700
     54 H13          0.3100     4.9270    -0.2680 hc         1 3Y4       0.069700
     55 H14          5.1790     2.8790    -1.6500 ha         1 3Y4       0.118500
     56 H15          6.0870     4.0130     0.3540 ha         1 3Y4       0.122000
     57 H16          4.5490     5.1890     1.8980 ha         1 3Y4       0.118500
     58 H17          2.1270     5.2050     1.4570 ha         1 3Y4       0.106000
     59 H18         -1.6080     0.7110     0.3700 hn         1 3Y4       0.362000
     60 H20         -3.0530    -0.7170    -0.7900 ha         1 3Y4       0.118000
     61 H21         -4.7010    -2.4700    -0.7580 ha         1 3Y4       0.133000
     62 H22         -7.6280     0.3270     0.6780 ha         1 3Y4       0.133000
     63 H23         -5.9520     2.0780     0.6940 ha         1 3Y4       0.118000
     64 H24         -8.2220    -1.7990     0.3430 hn         1 3Y4       0.168000
     65 H25         -8.0160    -6.0080     0.0420 h1         1 3Y4       0.052033
     66 H26         -9.7010    -5.6070    -0.3420 h1         1 3Y4       0.052033
     67 H27         -8.4630    -5.5220    -1.6090 h1         1 3Y4       0.052033
     68 H7           2.7600     2.9200    -2.1030 ha         1 3Y4       0.106000
@<TRIPOS>BOND
     1     1     2 1   
     2     1     3 1   
     3     1    43 1   
     4     1    44 1   
     5     2    12 ar  
     6     2    17 ar  
     7     3     4 1   
     8     3    45 1   
     9     3    46 1   
    10     4    18 2   
    11     4    19 1   
    12     5    13 1   
    13     5    16 2   
    14     5    47 1   
    15     6    19 1   
    16     6    20 1   
    17     6    26 1   
    18     6    48 1   
    19     7    21 ar  
    20     7    22 ar  
    21     7    68 1   
    22     8     9 1   
    23     9    10 ar  
    24     9    17 ar  
    25    10    11 ar  
    26    10    49 1   
    27    11    12 ar  
    28    11    50 1   
    29    12    13 1   
    30    13    14 1   
    31    14    15 2   
    32    15    16 1   
    33    17    51 1   
    34    19    52 1   
    35    20    21 1   
    36    20    53 1   
    37    20    54 1   
    38    21    25 ar  
    39    22    23 ar  
    40    22    55 1   
    41    23    24 ar  
    42    23    56 1   
    43    24    25 ar  
    44    24    57 1   
    45    25    58 1   
    46    26    27 1   
    47    26    31 2   
    48    27    28 1   
    49    27    59 1   
    50    28    29 2   
    51    28    32 1   
    52    29    30 1   
    53    29    31 1   
    54    32    33 ar  
    55    32    37 ar  
    56    33    34 ar  
    57    33    60 1   
    58    34    35 ar  
    59    34    61 1   
    60    35    36 ar  
    61    35    38 1   
    62    36    37 ar  
    63    36    62 1   
    64    37    63 1   
    65    38    39 1   
    66    38    64 1   
    67    39    40 2   
    68    39    41 1   
    69    41    42 1   
    70    42    65 1   
    71    42    66 1   
    72    42    67 1   
@<TRIPOS>SUBSTRUCTURE
     1 3Y4         1 TEMP              0 ****  ****    0 ROOT
