@<TRIPOS>MOLECULE
3Y4
   68    72     1     0     0
SMALL
No Charge or Current Charge


@<TRIPOS>ATOM
      1 C17          2.4940    -1.2260     0.3770 c3         1 3Y4      -0.027100
      2 C16          3.4630    -2.3000    -0.1210 ca         1 3Y4      -0.038300
      3 C20          3.0800     0.1970     0.2320 c3         1 3Y4      -0.159400
      4 C23          2.0970     1.2560     0.7340 c          1 3Y4       0.604100
      5 C12          5.5880    -1.6060     2.4940 cc         1 3Y4       0.386400
      6 C27          0.5530     3.1130     0.0030 c3         1 3Y4       0.083400
      7 C33          2.1330     3.8890    -3.1160 ca         1 3Y4      -0.108000
      8 Cl1          4.0940    -4.2410    -3.6320 cl         1 3Y4      -0.178000
      9 C2           4.2380    -3.7100    -1.9610 ca         1 3Y4       0.133000
     10 C3           5.2300    -4.2570    -1.1360 ca         1 3Y4      -0.097000
     11 C5           5.3460    -3.8300     0.1970 ca         1 3Y4      -0.090000
     12 C7           4.4680    -2.8540     0.7120 ca         1 3Y4      -0.011200
     13 N8           4.6210    -2.4510     2.0380 na         1 3Y4       0.004500
     14 N9           3.8920    -2.9950     3.0330 nc         1 3Y4      -0.184800
     15 N10          4.3890    -2.4320     4.1050 nd         1 3Y4      -0.041000
     16 N11          5.4380    -1.5770     3.8070 nd         1 3Y4      -0.386000
     17 C14          3.3610    -2.7370    -1.4580 ca         1 3Y4      -0.102000
     18 O24          1.8840     1.4470     1.9210 o          1 3Y4      -0.573100
     19 N25          1.4870     1.9980    -0.2500 ns         1 3Y4      -0.521900
     20 C29          0.3770     3.9720    -1.2710 c3         1 3Y4      -0.040100
     21 C32          1.7040     4.4150    -1.8820 ca         1 3Y4      -0.093300
     22 C35          3.3600     4.2920    -3.6710 ca         1 3Y4      -0.108500
     23 C37          4.1660     5.2240    -2.9950 ca         1 3Y4      -0.097000
     24 C39          3.7420     5.7540    -1.7640 ca         1 3Y4      -0.108500
     25 C41          2.5150     5.3510    -1.2100 ca         1 3Y4      -0.108000
     26 C43         -0.7830     2.6650     0.5700 cc         1 3Y4       0.395800
     27 N44         -1.4350     1.5160     0.1830 na         1 3Y4      -0.277500
     28 C46         -2.5930     1.4400     0.9200 cc         1 3Y4      -0.127000
     29 C47         -2.6340     2.5860     1.6790 cd         1 3Y4       0.343000
     30 Cl2         -3.9120     3.1260     2.7230 cl         1 3Y4      -0.137000
     31 N49         -1.4990     3.3400     1.4620 nd         1 3Y4      -0.656000
     32 C50         -3.6580     0.4400     0.8220 ca         1 3Y4      -0.039000
     33 C51         -3.9990    -0.0960    -0.4350 ca         1 3Y4      -0.066500
     34 C53         -5.0110    -1.0650    -0.5520 ca         1 3Y4      -0.152000
     35 C55         -5.6960    -1.5250     0.5930 ca         1 3Y4       0.006000
     36 C56         -5.3420    -1.0010     1.8490 ca         1 3Y4      -0.152000
     37 C58         -4.3310    -0.0310     1.9650 ca         1 3Y4      -0.066500
     38 N60         -6.7290    -2.5010     0.5490 ns         1 3Y4      -0.138000
     39 C62         -7.3100    -3.1930    -0.4970 c          1 3Y4       0.646100
     40 O63         -7.0290    -3.0910    -1.6840 o          1 3Y4      -0.522000
     41 O64         -8.2730    -4.0270     0.0040 os         1 3Y4      -0.457100
     42 C65         -9.0080    -4.8440    -0.9260 c3         1 3Y4       0.170900
     43 H1           1.5520    -1.2830    -0.1850 hc         1 3Y4       0.082700
     44 H2           2.2160    -1.4040     1.4230 hc         1 3Y4       0.082700
     45 H3           3.9970     0.2620     0.8270 hc         1 3Y4       0.058700
     46 H4           3.3130     0.3700    -0.8260 hc         1 3Y4       0.058700
     47 H5           6.3080    -1.0860     1.8740 h5         1 3Y4       0.076100
     48 H6           1.0160     3.7540     0.7650 h1         1 3Y4       0.106700
     49 H8           5.9090    -5.0110    -1.5300 ha         1 3Y4       0.142000
     50 H9           6.1180    -4.2600     0.8320 ha         1 3Y4       0.135000
     51 H10          2.6010    -2.3190    -2.1140 ha         1 3Y4       0.140000
     52 H11          1.7590     1.8030    -1.2070 hn         1 3Y4       0.307500
     53 H12         -0.2090     3.4040    -2.0050 hc         1 3Y4       0.069700
     54 H13         -0.2280     4.8530    -1.0230 hc         1 3Y4       0.069700
     55 H14          3.6870     3.8820    -4.6240 ha         1 3Y4       0.118500
     56 H15          5.1160     5.5360    -3.4240 ha         1 3Y4       0.122000
     57 H16          4.3640     6.4760    -1.2400 ha         1 3Y4       0.118500
     58 H17          2.1950     5.7670    -0.2570 ha         1 3Y4       0.106000
     59 H18         -1.0970     0.8520    -0.5000 hn         1 3Y4       0.362000
     60 H20         -3.4870     0.2490    -1.3300 ha         1 3Y4       0.118000
     61 H21         -5.2460    -1.4440    -1.5420 ha         1 3Y4       0.133000
     62 H22         -5.8500    -1.3490     2.7460 ha         1 3Y4       0.133000
     63 H23         -4.0630     0.3380     2.9520 ha         1 3Y4       0.118000
     64 H24         -7.1140    -2.7360     1.4540 hn         1 3Y4       0.168000
     65 H25         -8.3360    -5.5160    -1.4750 h1         1 3Y4       0.052033
     66 H26         -9.7450    -5.4600    -0.3950 h1         1 3Y4       0.052033
     67 H27         -9.5470    -4.2220    -1.6530 h1         1 3Y4       0.052033
     68 H7           1.5180     3.1660    -3.6490 ha         1 3Y4       0.106000
@<TRIPOS>BOND
     1     1     2 1   
     2     1     3 1   
     3     1    43 1   
     4     1    44 1   
     5     2    12 ar  
     6     2    17 ar  
     7     3     4 1   
     8     3    45 1   
     9     3    46 1   
    10     4    18 2   
    11     4    19 1   
    12     5    13 1   
    13     5    16 2   
    14     5    47 1   
    15     6    19 1   
    16     6    20 1   
    17     6    26 1   
    18     6    48 1   
    19     7    21 ar  
    20     7    22 ar  
    21     7    68 1   
    22     8     9 1   
    23     9    10 ar  
    24     9    17 ar  
    25    10    11 ar  
    26    10    49 1   
    27    11    12 ar  
    28    11    50 1   
    29    12    13 1   
    30    13    14 1   
    31    14    15 2   
    32    15    16 1   
    33    17    51 1   
    34    19    52 1   
    35    20    21 1   
    36    20    53 1   
    37    20    54 1   
    38    21    25 ar  
    39    22    23 ar  
    40    22    55 1   
    41    23    24 ar  
    42    23    56 1   
    43    24    25 ar  
    44    24    57 1   
    45    25    58 1   
    46    26    27 1   
    47    26    31 2   
    48    27    28 1   
    49    27    59 1   
    50    28    29 2   
    51    28    32 1   
    52    29    30 1   
    53    29    31 1   
    54    32    33 ar  
    55    32    37 ar  
    56    33    34 ar  
    57    33    60 1   
    58    34    35 ar  
    59    34    61 1   
    60    35    36 ar  
    61    35    38 1   
    62    36    37 ar  
    63    36    62 1   
    64    37    63 1   
    65    38    39 1   
    66    38    64 1   
    67    39    40 2   
    68    39    41 1   
    69    41    42 1   
    70    42    65 1   
    71    42    66 1   
    72    42    67 1   
@<TRIPOS>SUBSTRUCTURE
     1 3Y4         1 TEMP              0 ****  ****    0 ROOT
