@<TRIPOS>MOLECULE
3Y5
   64    69     1     0     0
SMALL
bcc


@<TRIPOS>ATOM
      1 N14         -2.8690     0.3940     0.1780 nc         1 3Y5      -0.669000
      2 C13         -3.5910    -0.7660     0.0570 cc         1 3Y5       0.390800
      3 C18         -7.0940    -1.7910    -0.9080 ca         1 3Y5      -0.048000
      4 C17         -5.7390     0.3730     0.3300 ca         1 3Y5      -0.129000
      5 C16         -5.0430    -0.7370    -0.1200 ca         1 3Y5      -0.064500
      6 C19         -5.7280    -1.8100    -0.7460 ca         1 3Y5      -0.167000
      7 C20          1.8740     0.3370     1.0200 c          1 3Y5       0.776100
      8 C23          4.1530    -0.4690     1.2470 c3         1 3Y5       0.144300
      9 C24          5.1940    -1.2040     0.4460 ca         1 3Y5      -0.070300
     10 C12         -2.7220    -1.8210     0.1710 cd         1 3Y5      -0.112200
     11 C27          7.1080    -2.6360    -1.0340 ca         1 3Y5      -0.108000
     12 C1           1.5630     3.4800    -0.3250 ca         1 3Y5      -0.119500
     13 C2           0.3230     3.3500     0.2940 ca         1 3Y5      -0.092300
     14 C3           0.0310     4.1730     1.3800 ca         1 3Y5      -0.119500
     15 C4           0.9530     5.1010     1.8390 ca         1 3Y5      -0.122000
     16 C5           2.1900     5.2180     1.2180 ca         1 3Y5      -0.124000
     17 C6           2.4920     4.4040     0.1350 ca         1 3Y5      -0.122000
     18 C7          -0.6700     2.3160    -0.1510 c3         1 3Y5      -0.042100
     19 C8          -0.4660     0.9850     0.5870 c3         1 3Y5       0.093400
     20 N9           0.7610     0.3220     0.2250 ns         1 3Y5      -0.601900
     21 C10         -1.6210     0.0540     0.3550 cd         1 3Y5       0.402800
     22 N11         -1.4840    -1.2880     0.3570 na         1 3Y5      -0.287900
     23 CL          -2.9450    -3.5080     0.1710 cl         1 3Y5      -0.036400
     24 N21          2.9480    -0.2990     0.4620 ns         1 3Y5      -0.579900
     25 O22          1.9120     0.8540     2.1230 o          1 3Y5      -0.601100
     26 C25          5.6770    -0.7290    -0.7730 ca         1 3Y5       0.001800
     27 C26          6.6180    -1.4300    -1.5070 ca         1 3Y5      -0.109000
     28 C28          6.6440    -3.1090     0.1810 ca         1 3Y5       0.037400
     29 C29          5.6970    -2.4090     0.9150 ca         1 3Y5      -0.111000
     30 CL2          7.2430    -4.6080     0.7950 cl         1 3Y5      -0.081400
     31 N31          5.2000     0.5000    -1.2940 na         1 3Y5       0.010500
     32 C32          4.4510     0.7290    -2.3760 cc         1 3Y5       0.388400
     33 N33          4.2670     2.0170    -2.4760 nd         1 3Y5      -0.382000
     34 N34          4.9130     2.5600    -1.4410 nd         1 3Y5      -0.045000
     35 N35          5.4730     1.6700    -0.7260 nc         1 3Y5      -0.180800
     36 C36         -7.8090    -0.6820    -0.4480 ca         1 3Y5      -0.254900
     37 C37         -7.1260     0.3830     0.1630 ca         1 3Y5      -0.013200
     38 N38         -8.0670     1.2840     0.5060 na         1 3Y5      -0.019100
     39 N39         -9.3110     0.8830     0.1540 nc         1 3Y5      -0.580100
     40 C40         -9.1820    -0.2880    -0.4140 cd         1 3Y5       0.547800
     41 N41        -10.2550    -1.0380    -0.8420 nv         1 3Y5      -0.851800
     42 H53         -7.5950    -2.6210    -1.3900 ha         1 3Y5       0.133000
     43 H52         -5.2220     1.1960     0.8040 ha         1 3Y5       0.156000
     44 H54         -5.1720    -2.6550    -1.1230 ha         1 3Y5       0.135000
     45 H56          3.9640    -1.0230     2.1700 h1         1 3Y5       0.076200
     46 H57          4.5340     0.5110     1.5390 h1         1 3Y5       0.076200
     47 H59          7.8420    -3.1880    -1.6030 ha         1 3Y5       0.161000
     48 H42          1.8080     2.8580    -1.1780 ha         1 3Y5       0.126000
     49 H43         -0.9330     4.0890     1.8700 ha         1 3Y5       0.126000
     50 H44          0.7070     5.7350     2.6830 ha         1 3Y5       0.137500
     51 H45          2.9130     5.9400     1.5760 ha         1 3Y5       0.129000
     52 H46          3.4550     4.4790    -0.3510 ha         1 3Y5       0.137500
     53 H48         -1.6860     2.6630     0.0420 hc         1 3Y5       0.067700
     54 H47         -0.5960     2.1390    -1.2280 hc         1 3Y5       0.067700
     55 H49         -0.4100     1.1910     1.6590 h1         1 3Y5       0.109700
     56 H50          0.8870     0.1080    -0.7540 hn         1 3Y5       0.305500
     57 H51         -0.6230    -1.8020     0.4770 hn         1 3Y5       0.315700
     58 H55          2.7520    -1.0240    -0.2110 hn         1 3Y5       0.295500
     59 H58          6.9780    -1.0340    -2.4470 ha         1 3Y5       0.156000
     60 H60          5.3390    -2.8080     1.8550 ha         1 3Y5       0.160000
     61 H61          4.0740    -0.0400    -3.0300 h5         1 3Y5       0.073100
     62 H62         -7.9460     2.1560     0.9900 hn         1 3Y5       0.327700
     63 H63        -10.0840    -1.5460    -1.6960 hn         1 3Y5       0.389800
     64 H64        -11.1130    -0.5100    -0.9140 hn         1 3Y5       0.389800
@<TRIPOS>BOND
     1     1     2 1   
     2     1    21 2   
     3     2     5 1   
     4     2    10 2   
     5     3     6 ar  
     6     3    36 ar  
     7     3    42 1   
     8     4     5 ar  
     9     4    37 ar  
    10     4    43 1   
    11     5     6 ar  
    12     6    44 1   
    13     7    20 1   
    14     7    24 1   
    15     7    25 2   
    16     8     9 1   
    17     8    24 1   
    18     8    45 1   
    19     8    46 1   
    20     9    26 ar  
    21     9    29 ar  
    22    10    22 1   
    23    10    23 1   
    24    11    27 ar  
    25    11    28 ar  
    26    11    47 1   
    27    12    13 ar  
    28    12    17 ar  
    29    12    48 1   
    30    13    14 ar  
    31    13    18 1   
    32    14    15 ar  
    33    14    49 1   
    34    15    16 ar  
    35    15    50 1   
    36    16    17 ar  
    37    16    51 1   
    38    17    52 1   
    39    18    19 1   
    40    18    53 1   
    41    18    54 1   
    42    19    20 1   
    43    19    21 1   
    44    19    55 1   
    45    20    56 1   
    46    21    22 1   
    47    22    57 1   
    48    24    58 1   
    49    26    27 ar  
    50    26    31 1   
    51    27    59 1   
    52    28    29 ar  
    53    28    30 1   
    54    29    60 1   
    55    31    32 1   
    56    31    35 1   
    57    32    33 2   
    58    32    61 1   
    59    33    34 1   
    60    34    35 2   
    61    36    37 ar  
    62    36    40 1   
    63    37    38 1   
    64    38    39 1   
    65    38    62 1   
    66    39    40 2   
    67    40    41 1   
    68    41    63 1   
    69    41    64 1   
@<TRIPOS>SUBSTRUCTURE
     1 3Y5         1 TEMP              0 ****  ****    0 ROOT
