@<TRIPOS>MOLECULE
3Y5
   64    69     1     0     0
SMALL
No Charge or Current Charge


@<TRIPOS>ATOM
      1 N14         -2.9300     0.3950    -0.1980 nc         1 3Y5      -0.669000
      2 C13         -3.8270    -0.6170    -0.4020 cc         1 3Y5       0.325500
      3 C18         -7.6250    -1.0070    -0.4830 ca         1 3Y5      -0.030000
      4 C17         -5.6140     0.1430     1.1640 ca         1 3Y5      -0.111000
      5 C16         -5.2420    -0.5600    -0.0090 ca         1 3Y5      -0.064500
      6 C19         -6.2630    -1.1070    -0.8400 ca         1 3Y5      -0.149000
      7 C20          1.3840    -0.5450     0.5170 c          1 3Y5       0.642100
      8 C23          3.5460    -1.5820     1.2410 c3         1 3Y5       0.144300
      9 C24          4.9500    -1.1550     0.8240 ca         1 3Y5      -0.070300
     10 C12         -3.2340    -1.7360    -0.9360 cd         1 3Y5      -0.006000
     11 C27          7.5590    -0.4340     0.0150 ca         1 3Y5      -0.090000
     12 C1           1.9660     2.2290    -2.6180 ca         1 3Y5      -0.101500
     13 C2           0.9010     2.5420    -1.7500 ca         1 3Y5      -0.092300
     14 C3           1.0410     3.6110    -0.8430 ca         1 3Y5      -0.101500
     15 C4           2.2290     4.3600    -0.8070 ca         1 3Y5      -0.104000
     16 C5           3.2890     4.0420    -1.6730 ca         1 3Y5      -0.106000
     17 C6           3.1570     2.9760    -2.5780 ca         1 3Y5      -0.104000
     18 C7          -0.3890     1.7250    -1.7790 c3         1 3Y5      -0.042100
     19 C8          -0.4740     0.7030    -0.6210 c3         1 3Y5       0.093400
     20 N9           0.7250    -0.1590    -0.6140 ns         1 3Y5      -0.534900
     21 C10         -1.7730    -0.0840    -0.6400 cd         1 3Y5       0.402800
     22 N11         -1.9090    -1.3840    -1.1000 na         1 3Y5      -0.287500
     23 Cl          -3.8660    -3.3180    -1.2750 cl         1 3Y5      -0.128000
     24 N21          2.5640    -1.1710     0.2370 ns         1 3Y5      -0.512900
     25 O22          0.9770    -0.3320     1.6440 o          1 3Y5      -0.601100
     26 C25          5.4370     0.1530     1.0750 ca         1 3Y5       0.001800
     27 C26          6.7420     0.5030     0.6710 ca         1 3Y5      -0.091000
     28 C28          7.0750    -1.7250    -0.2390 ca         1 3Y5       0.129000
     29 C29          5.7790    -2.0850     0.1630 ca         1 3Y5      -0.093000
     30 Cl2          8.0950    -2.8980    -1.0620 cl         1 3Y5      -0.173000
     31 N31          4.6550     1.1110     1.7200 na         1 3Y5       0.010500
     32 C32          3.6540     1.8340     1.1430 cc         1 3Y5       0.388400
     33 N33          3.2170     2.6440     2.0910 nd         1 3Y5      -0.382000
     34 N34          3.9770     2.3830     3.2190 nd         1 3Y5      -0.045000
     35 N35          4.8710     1.4510     3.0060 nc         1 3Y5      -0.180800
     36 C36         -7.9300    -0.3330     0.7050 ca         1 3Y5      -0.254900
     37 C37         -6.9740     0.2220     1.4900 ca         1 3Y5      -0.013200
     38 N38         -7.5960     0.8310     2.5680 na         1 3Y5      -0.069400
     39 N39         -8.9960     0.6680     2.4780 nc         1 3Y5      -0.580100
     40 C40         -9.1690    -0.0300     1.3620 cd         1 3Y5       0.547800
     41 N41        -10.4200    -0.3370     0.9890 nv         1 3Y5      -0.962200
     42 H53         -8.4050    -1.4290    -1.1130 ha         1 3Y5       0.115000
     43 H52         -4.8630     0.6040     1.8030 ha         1 3Y5       0.138000
     44 H54         -6.0040    -1.5980    -1.7740 ha         1 3Y5       0.117000
     45 H56          3.5020    -2.6740     1.3490 h1         1 3Y5       0.076200
     46 H57          3.2980    -1.1470     2.2180 h1         1 3Y5       0.076200
     47 H59          8.5630    -0.1590    -0.2960 ha         1 3Y5       0.143000
     48 H42          1.8750     1.4060    -3.3240 ha         1 3Y5       0.108000
     49 H43          0.2280     3.8610    -0.1650 ha         1 3Y5       0.108000
     50 H44          2.3300     5.1840    -0.1040 ha         1 3Y5       0.119500
     51 H45          4.2090     4.6210    -1.6430 ha         1 3Y5       0.111000
     52 H46          3.9760     2.7280    -3.2500 ha         1 3Y5       0.119500
     53 H48         -1.2540     2.3970    -1.7230 hc         1 3Y5       0.067700
     54 H47         -0.4820     1.1930    -2.7330 hc         1 3Y5       0.067700
     55 H49         -0.4780     1.2810     0.3130 h1         1 3Y5       0.109700
     56 H50          1.1710    -0.3660    -1.4980 hn         1 3Y5       0.305500
     57 H51         -1.1620    -1.9640    -1.4560 hn         1 3Y5       0.366000
     58 H55          2.7980    -1.3040    -0.7380 hn         1 3Y5       0.295500
     59 H58          7.1220     1.5040     0.8640 ha         1 3Y5       0.138000
     60 H60          5.4190    -3.0900    -0.0430 ha         1 3Y5       0.142000
     61 H61          3.3210     1.7330     0.1180 h5         1 3Y5       0.073100
     62 H62         -7.1450     1.3350     3.3310 hn         1 3Y5       0.378000
     63 H63        -10.5710    -0.6190     0.0270 hn         1 3Y5       0.445000
     64 H64        -11.1750     0.1540     1.4520 hn         1 3Y5       0.445000
@<TRIPOS>BOND
     1     1     2 1   
     2     1    21 2   
     3     2     5 1   
     4     2    10 2   
     5     3     6 ar  
     6     3    36 ar  
     7     3    42 1   
     8     4     5 ar  
     9     4    37 ar  
    10     4    43 1   
    11     5     6 ar  
    12     6    44 1   
    13     7    20 1   
    14     7    24 1   
    15     7    25 2   
    16     8     9 1   
    17     8    24 1   
    18     8    45 1   
    19     8    46 1   
    20     9    26 ar  
    21     9    29 ar  
    22    10    22 1   
    23    10    23 1   
    24    11    27 ar  
    25    11    28 ar  
    26    11    47 1   
    27    12    13 ar  
    28    12    17 ar  
    29    12    48 1   
    30    13    14 ar  
    31    13    18 1   
    32    14    15 ar  
    33    14    49 1   
    34    15    16 ar  
    35    15    50 1   
    36    16    17 ar  
    37    16    51 1   
    38    17    52 1   
    39    18    19 1   
    40    18    53 1   
    41    18    54 1   
    42    19    20 1   
    43    19    21 1   
    44    19    55 1   
    45    20    56 1   
    46    21    22 1   
    47    22    57 1   
    48    24    58 1   
    49    26    27 ar  
    50    26    31 1   
    51    27    59 1   
    52    28    29 ar  
    53    28    30 1   
    54    29    60 1   
    55    31    32 1   
    56    31    35 1   
    57    32    33 2   
    58    32    61 1   
    59    33    34 1   
    60    34    35 2   
    61    36    37 ar  
    62    36    40 1   
    63    37    38 1   
    64    38    39 1   
    65    38    62 1   
    66    39    40 2   
    67    40    41 1   
    68    41    63 1   
    69    41    64 1   
@<TRIPOS>SUBSTRUCTURE
     1 3Y5         1 TEMP              0 ****  ****    0 ROOT
