@<TRIPOS>MOLECULE
3Y7
   28    30     1     0     0
SMALL
abcg2


@<TRIPOS>ATOM
      1 N           22.3000    49.9390    11.5200 nv         1 3Y7      -1.049000
      2 C           21.7040    51.0090    10.8710 ca         1 3Y7       0.280000
      3 C9          20.5100    51.5910    11.3920 ca         1 3Y7      -0.097000
      4 N3          19.7940    51.2000    12.4210 nc         1 3Y7       0.011000
      5 O1          18.7380    52.0630    12.4730 os         1 3Y7      -0.042000
      6 N2          18.7840    53.0010    11.4820 nc         1 3Y7       0.002000
      7 C8          19.8760    52.7410    10.7910 ca         1 3Y7      -0.086000
      8 C3          20.4410    53.3830     9.6350 ca         1 3Y7       0.287000
      9 C2          21.5980    52.7900     9.1800 ca         1 3Y7      -0.119000
     10 C1          22.2040    51.6390     9.7600 ca         1 3Y7      -0.161000
     11 N1          19.8840    54.5020     9.0090 nh         1 3Y7      -0.795400
     12 C7          19.6990    54.4490     7.5560 c6         1 3Y7       0.168800
     13 C6          19.5640    55.8530     6.9960 c6         1 3Y7       0.147100
     14 O           18.5030    56.5650     7.6280 os         1 3Y7      -0.454000
     15 C5          18.7210    56.6380     9.0350 c6         1 3Y7       0.147100
     16 C4          18.8190    55.2560     9.6590 c6         1 3Y7       0.168800
     17 H1          21.6660    49.3280    12.0150 hn         1 3Y7       0.456000
     18 H2          22.9600    49.4200    10.9570 hn         1 3Y7       0.456000
     19 H3          22.0950    53.2190     8.3200 ha         1 3Y7       0.121000
     20 H4          23.1080    51.2570     9.3020 ha         1 3Y7       0.120000
     21 H5          18.7950    53.8680     7.3140 h1         1 3Y7       0.053450
     22 H6          20.5490    53.9610     7.0860 h1         1 3Y7       0.053450
     23 H7          20.5070    56.3970     7.1360 h1         1 3Y7       0.055450
     24 H8          19.3290    55.8140     5.9330 h1         1 3Y7       0.055450
     25 H9          19.6420    57.2010     9.2340 h1         1 3Y7       0.055450
     26 H10         17.8750    57.1800     9.4570 h1         1 3Y7       0.055450
     27 H11         17.8500    54.7460     9.5630 h1         1 3Y7       0.053450
     28 H12         19.0410    55.3650    10.7190 h1         1 3Y7       0.053450
@<TRIPOS>BOND
     1     1     2 1   
     2     1    17 1   
     3     1    18 1   
     4     2     3 ar  
     5     2    10 ar  
     6     3     4 2   
     7     3     7 ar  
     8     4     5 1   
     9     5     6 1   
    10     6     7 2   
    11     7     8 ar  
    12     8     9 ar  
    13     8    11 1   
    14     9    10 ar  
    15     9    19 1   
    16    10    20 1   
    17    11    12 1   
    18    11    16 1   
    19    12    13 1   
    20    12    21 1   
    21    12    22 1   
    22    13    14 1   
    23    13    23 1   
    24    13    24 1   
    25    14    15 1   
    26    15    16 1   
    27    15    25 1   
    28    15    26 1   
    29    16    27 1   
    30    16    28 1   
@<TRIPOS>SUBSTRUCTURE
     1 3Y7         1 TEMP              0 ****  ****    0 ROOT
