@<TRIPOS>MOLECULE
3Y7
   28    30     1     0     0
SMALL
No Charge or Current Charge


@<TRIPOS>ATOM
      1 N           22.3300    50.0160    11.4890 nv         1 3Y7      -1.049000
      2 C           21.6870    51.0720    10.8950 ca         1 3Y7       0.280000
      3 C9          20.3940    51.4600    11.2880 ca         1 3Y7      -0.097000
      4 N3          19.6190    50.8700    12.2640 nc         1 3Y7       0.011000
      5 O1          18.4270    51.6700    12.2040 os         1 3Y7      -0.042000
      6 N2          18.4880    52.7130    11.2160 nc         1 3Y7       0.002000
      7 C8          19.7490    52.5250    10.6880 ca         1 3Y7      -0.086000
      8 C3          20.3680    53.2670     9.6520 ca         1 3Y7       0.287000
      9 C2          21.6640    52.8780     9.2510 ca         1 3Y7      -0.119000
     10 C1          22.3200    51.7910     9.8680 ca         1 3Y7      -0.161000
     11 N1          19.7480    54.3680     9.0070 nh         1 3Y7      -0.795400
     12 C7          19.4990    54.3500     7.5290 c6         1 3Y7       0.168800
     13 C6          19.4700    55.7850     6.9210 c6         1 3Y7       0.147100
     14 O           18.5660    56.6420     7.6600 os         1 3Y7      -0.454000
     15 C5          18.9390    56.7710     9.0540 c6         1 3Y7       0.147100
     16 C4          18.9370    55.3820     9.7590 c6         1 3Y7       0.168800
     17 H1          21.8230    49.4150    12.1370 hn         1 3Y7       0.456000
     18 H2          23.2010    49.6600    11.0980 hn         1 3Y7       0.456000
     19 H3          22.1690    53.4300     8.4640 ha         1 3Y7       0.121000
     20 H4          23.3200    51.5140     9.5450 ha         1 3Y7       0.120000
     21 H5          18.5370    53.8580     7.3210 h1         1 3Y7       0.053450
     22 H6          20.2750    53.7680     7.0100 h1         1 3Y7       0.053450
     23 H7          20.4800    56.2190     6.9450 h1         1 3Y7       0.055450
     24 H8          19.1460    55.7380     5.8720 h1         1 3Y7       0.055450
     25 H9          19.9400    57.2210     9.1200 h1         1 3Y7       0.055450
     26 H10         18.2300    57.4450     9.5560 h1         1 3Y7       0.055450
     27 H11         17.8960    55.0390     9.8520 h1         1 3Y7       0.053450
     28 H12         19.3330    55.5080    10.7780 h1         1 3Y7       0.053450
@<TRIPOS>BOND
     1     1     2 1   
     2     1    17 1   
     3     1    18 1   
     4     2     3 ar  
     5     2    10 ar  
     6     3     4 2   
     7     3     7 ar  
     8     4     5 1   
     9     5     6 1   
    10     6     7 2   
    11     7     8 ar  
    12     8     9 ar  
    13     8    11 1   
    14     9    10 ar  
    15     9    19 1   
    16    10    20 1   
    17    11    12 1   
    18    11    16 1   
    19    12    13 1   
    20    12    21 1   
    21    12    22 1   
    22    13    14 1   
    23    13    23 1   
    24    13    24 1   
    25    14    15 1   
    26    15    16 1   
    27    15    25 1   
    28    15    26 1   
    29    16    27 1   
    30    16    28 1   
@<TRIPOS>SUBSTRUCTURE
     1 3Y7         1 TEMP              0 ****  ****    0 ROOT
