@<TRIPOS>MOLECULE
3Y9
   56    58     1     0     0
SMALL
abcg2


@<TRIPOS>ATOM
      1 C13          2.4160     1.7340     1.7510 ca         1 3Y9      -0.077000
      2 C15          1.0660     1.4680     1.9040 ca         1 3Y9      -0.127500
      3 C17          4.7150     1.1370     1.0320 c          1 3Y9       0.594700
      4 C20          6.7690     0.7530    -0.2300 c3         1 3Y9      -0.052300
      5 C21          7.4280    -0.4600    -0.8880 c3         1 3Y9      -0.053400
      6 N1          -8.1710    -1.8180    -0.5210 nc         1 3Y9      -0.705100
      7 C6          -5.4270     0.4100    -0.6980 cc         1 3Y9      -0.151300
      8 C7          -6.4360     1.3220    -0.5900 cd         1 3Y9      -0.099000
      9 C8          -7.6550     0.5860    -0.5000 cd         1 3Y9      -0.300600
     10 C9          -7.3290    -0.7660    -0.5590 cc         1 3Y9       0.153400
     11 C14          2.7320    -0.4340     0.7850 ca         1 3Y9      -0.077000
     12 C16          1.3810    -0.6990     0.9480 ca         1 3Y9      -0.127500
     13 C2          -9.4270    -1.4850    -0.4040 cd         1 3Y9       0.713800
     14 N3          -9.8510    -0.1890    -0.3350 ns         1 3Y9      -0.456400
     15 C4          -9.0260     0.9410    -0.3790 c          1 3Y9       0.622600
     16 N5          -5.9870    -0.8560    -0.6750 na         1 3Y9      -0.105000
     17 O10         -9.5170     2.0600    -0.3130 o          1 3Y9      -0.556000
     18 N11        -10.3730    -2.4390    -0.2990 nv         1 3Y9      -1.042200
     19 C12          3.2660     0.7930     1.1750 ca         1 3Y9      -0.102600
     20 O18          5.2270     1.9960     1.7420 o          1 3Y9      -0.640100
     21 N19          5.4010     0.4410     0.1150 ns         1 3Y9      -0.416900
     22 C22          7.5180    -1.6670     0.0310 c3         1 3Y9      -0.201400
     23 C23          8.2180    -2.9040    -0.5590 c          1 3Y9       0.713000
     24 O24          8.4530    -3.8330     0.2430 o          1 3Y9      -0.761000
     25 O25          8.4820    -2.8990    -1.7780 o          1 3Y9      -0.761000
     26 C26          6.8810     2.0070    -1.1360 c          1 3Y9       0.717000
     27 O27          5.8370     2.4560    -1.6380 o          1 3Y9      -0.742500
     28 O28          8.0410     2.4410    -1.2900 o          1 3Y9      -0.742500
     29 C29         -3.9540     0.6020    -0.7880 c3         1 3Y9      -0.017100
     30 C30         -3.2040     0.1620     0.4720 c3         1 3Y9      -0.076400
     31 C31         -1.7050     0.4040     0.3600 c3         1 3Y9      -0.078400
     32 C32         -0.9490    -0.0190     1.6210 c3         1 3Y9      -0.019100
     33 C33          0.5240     0.2480     1.5030 ca         1 3Y9      -0.104300
     34 H1           2.8130     2.6850     2.0800 ha         1 3Y9       0.133000
     35 H2           0.4240     2.2190     2.3490 ha         1 3Y9       0.094000
     36 H3           7.3030     0.9670     0.7010 h1         1 3Y9       0.059700
     37 H4           6.8840    -0.7210    -1.8020 hc         1 3Y9       0.049700
     38 H5           8.4270    -0.1600    -1.2050 hc         1 3Y9       0.049700
     39 H6          -6.3140     2.3940    -0.5730 ha         1 3Y9       0.145000
     40 H7           3.3650    -1.2100     0.3720 ha         1 3Y9       0.133000
     41 H8           0.9900    -1.6620     0.6440 ha         1 3Y9       0.094000
     42 H9         -10.8410    -0.0100    -0.2330 hn         1 3Y9       0.314500
     43 H10         -5.4770    -1.7210    -0.7600 hn         1 3Y9       0.359000
     44 H11        -10.0920    -3.3780    -0.5270 hn         1 3Y9       0.487500
     45 H12        -11.3350    -2.2190    -0.4980 hn         1 3Y9       0.487500
     46 H13          4.8760    -0.0820    -0.5680 hn         1 3Y9       0.297500
     47 H14          8.0300    -1.3830     0.9570 hc         1 3Y9       0.010200
     48 H15          6.5150    -1.9760     0.3480 hc         1 3Y9       0.010200
     49 H18         -3.5560     0.0600    -1.6520 hc         1 3Y9       0.057700
     50 H19         -3.7620     1.6610    -0.9750 hc         1 3Y9       0.057700
     51 H20         -3.6030     0.7040     1.3350 hc         1 3Y9       0.036200
     52 H21         -3.3870    -0.9000     0.6650 hc         1 3Y9       0.036200
     53 H22         -1.3070    -0.1410    -0.5020 hc         1 3Y9       0.048200
     54 H23         -1.5200     1.4650     0.1650 hc         1 3Y9       0.048200
     55 H24         -1.3560     0.5190     2.4820 hc         1 3Y9       0.034200
     56 H25         -1.1200    -1.0830     1.8050 hc         1 3Y9       0.034200
@<TRIPOS>BOND
     1     1     2 ar  
     2     1    19 ar  
     3     1    34 1   
     4     2    33 ar  
     5     2    35 1   
     6     3    19 1   
     7     3    20 2   
     8     3    21 1   
     9     4     5 1   
    10     4    21 1   
    11     4    26 1   
    12     4    36 1   
    13     5    22 1   
    14     5    37 1   
    15     5    38 1   
    16     6    10 1   
    17     6    13 2   
    18     7     8 2   
    19     7    16 1   
    20     7    29 1   
    21     8     9 1   
    22     8    39 1   
    23     9    10 2   
    24     9    15 1   
    25    10    16 1   
    26    11    12 ar  
    27    11    19 ar  
    28    11    40 1   
    29    12    33 ar  
    30    12    41 1   
    31    13    14 1   
    32    13    18 1   
    33    14    15 1   
    34    14    42 1   
    35    15    17 2   
    36    16    43 1   
    37    18    44 1   
    38    18    45 1   
    39    21    46 1   
    40    22    23 1   
    41    22    47 1   
    42    22    48 1   
    43    23    24 1   
    44    23    25 1   
    45    26    27 1   
    46    26    28 1   
    47    29    30 1   
    48    29    49 1   
    49    29    50 1   
    50    30    31 1   
    51    30    51 1   
    52    30    52 1   
    53    31    32 1   
    54    31    53 1   
    55    31    54 1   
    56    32    33 1   
    57    32    55 1   
    58    32    56 1   
@<TRIPOS>SUBSTRUCTURE
     1 3Y9         1 TEMP              0 ****  ****    0 ROOT
