@<TRIPOS>MOLECULE
3Y9
   56    58     1     0     0
SMALL
No Charge or Current Charge


@<TRIPOS>ATOM
      1 C13          2.5180     0.9510     1.7120 ca         1 3Y9      -0.077000
      2 C15          1.1660     0.5800     1.8080 ca         1 3Y9      -0.127500
      3 C17          4.7760     0.9280     0.5650 c          1 3Y9       0.594700
      4 C20          6.9400     0.7220    -0.7730 c3         1 3Y9      -0.052300
      5 C21          7.8320    -0.4620    -0.3130 c3         1 3Y9      -0.053400
      6 N1          -8.5970    -1.3530    -1.1750 nc         1 3Y9      -0.705100
      7 C6          -5.6820     0.6150    -0.3110 cc         1 3Y9      -0.151300
      8 C7          -6.6710     1.1720     0.4620 cd         1 3Y9      -0.099000
      9 C8          -7.8820     0.4840     0.2170 cd         1 3Y9      -0.300600
     10 C9          -7.6410    -0.4890    -0.7020 cc         1 3Y9       0.153400
     11 C14          2.7230    -0.3250    -0.3450 ca         1 3Y9      -0.077000
     12 C16          1.3700    -0.6940    -0.2440 ca         1 3Y9      -0.127500
     13 C2          -9.7790    -1.1420    -0.6460 cd         1 3Y9       0.713800
     14 N3         -10.1150    -0.2080     0.2660 ns         1 3Y9      -0.456400
     15 C4          -9.2250     0.6770     0.7800 c          1 3Y9       0.622600
     16 N5          -6.2960    -0.4180    -1.0340 na         1 3Y9      -0.105000
     17 O10         -9.5280     1.5210     1.6090 o          1 3Y9      -0.556000
     18 N11        -10.7420    -1.9420    -1.0730 nv         1 3Y9      -1.042200
     19 C12          3.3190     0.5060     0.6350 ca         1 3Y9      -0.102600
     20 O18          5.2860     1.6440     1.4200 o          1 3Y9      -0.640100
     21 N19          5.4990     0.4700    -0.5210 ns         1 3Y9      -0.416900
     22 C22          7.7820    -0.7610     1.2090 c3         1 3Y9      -0.201400
     23 C23          8.7860    -1.8730     1.5640 c          1 3Y9       0.713000
     24 O24          9.9320    -1.5510     1.8410 o          1 3Y9      -0.761000
     25 O25          8.4100    -3.0330     1.5040 o          1 3Y9      -0.761000
     26 C26          7.1670     1.0450    -2.2810 c          1 3Y9       0.717000
     27 O27          6.6720     0.3030    -3.1190 o          1 3Y9      -0.742500
     28 O28          7.7530     2.0790    -2.5690 o          1 3Y9      -0.742500
     29 C29         -4.2270     0.9870    -0.4140 c3         1 3Y9      -0.017100
     30 C30         -3.3020    -0.0190     0.3030 c3         1 3Y9      -0.076400
     31 C31         -1.8070     0.3610     0.2150 c3         1 3Y9      -0.078400
     32 C32         -0.8820    -0.6450     0.9330 c3         1 3Y9      -0.019100
     33 C33          0.5840    -0.2470     0.8310 ca         1 3Y9      -0.104300
     34 H1           2.9430     1.5920     2.4820 ha         1 3Y9       0.133000
     35 H2           0.5700     0.9370     2.6440 ha         1 3Y9       0.094000
     36 H3           7.2410     1.6160    -0.2120 h1         1 3Y9       0.059700
     37 H4           7.5500    -1.3660    -0.8680 hc         1 3Y9       0.049700
     38 H5           8.8700    -0.2380    -0.5910 hc         1 3Y9       0.049700
     39 H6          -6.5410     2.0030     1.1500 ha         1 3Y9       0.145000
     40 H7           3.2920    -0.6970    -1.1930 ha         1 3Y9       0.133000
     41 H8           0.9320    -1.3320    -1.0090 ha         1 3Y9       0.094000
     42 H9         -11.0560    -0.1540     0.6150 hn         1 3Y9       0.314500
     43 H10         -5.8400    -1.0280    -1.7010 hn         1 3Y9       0.359000
     44 H11        -10.4870    -2.4820    -1.8900 hn         1 3Y9       0.487500
     45 H12        -11.6860    -1.5760    -1.0700 hn         1 3Y9       0.487500
     46 H13          4.9980    -0.0870    -1.2000 hn         1 3Y9       0.297500
     47 H14          8.0560     0.1780     1.7070 hc         1 3Y9       0.010200
     48 H15          6.7580    -1.0910     1.4220 hc         1 3Y9       0.010200
     49 H18         -3.9380     1.0560    -1.4710 hc         1 3Y9       0.057700
     50 H19         -4.0720     1.9850     0.0150 hc         1 3Y9       0.057700
     51 H20         -3.5970    -0.0860     1.3570 hc         1 3Y9       0.036200
     52 H21         -3.4470    -1.0150    -0.1340 hc         1 3Y9       0.036200
     53 H22         -1.5120     0.4290    -0.8390 hc         1 3Y9       0.048200
     54 H23         -1.6600     1.3560     0.6530 hc         1 3Y9       0.048200
     55 H24         -1.1800    -0.7190     1.9860 hc         1 3Y9       0.034200
     56 H25         -1.0320    -1.6430     0.5020 hc         1 3Y9       0.034200
@<TRIPOS>BOND
     1     1     2 ar  
     2     1    19 ar  
     3     1    34 1   
     4     2    33 ar  
     5     2    35 1   
     6     3    19 1   
     7     3    20 2   
     8     3    21 1   
     9     4     5 1   
    10     4    21 1   
    11     4    26 1   
    12     4    36 1   
    13     5    22 1   
    14     5    37 1   
    15     5    38 1   
    16     6    10 1   
    17     6    13 2   
    18     7     8 2   
    19     7    16 1   
    20     7    29 1   
    21     8     9 1   
    22     8    39 1   
    23     9    10 2   
    24     9    15 1   
    25    10    16 1   
    26    11    12 ar  
    27    11    19 ar  
    28    11    40 1   
    29    12    33 ar  
    30    12    41 1   
    31    13    14 1   
    32    13    18 1   
    33    14    15 1   
    34    14    42 1   
    35    15    17 2   
    36    16    43 1   
    37    18    44 1   
    38    18    45 1   
    39    21    46 1   
    40    22    23 1   
    41    22    47 1   
    42    22    48 1   
    43    23    24 1   
    44    23    25 1   
    45    26    27 1   
    46    26    28 1   
    47    29    30 1   
    48    29    49 1   
    49    29    50 1   
    50    30    31 1   
    51    30    51 1   
    52    30    52 1   
    53    31    32 1   
    54    31    53 1   
    55    31    54 1   
    56    32    33 1   
    57    32    55 1   
    58    32    56 1   
@<TRIPOS>SUBSTRUCTURE
     1 3Y9         1 TEMP              0 ****  ****    0 ROOT
