@<TRIPOS>MOLECULE
3YA
   55    57     1     0     0
SMALL
No Charge or Current Charge


@<TRIPOS>ATOM
      1 C13          2.9800     0.3340     0.3510 ca         1 3YA      -0.077000
      2 C14          2.7680    -0.9460    -1.7030 ca         1 3YA      -0.077000
      3 C16          1.4180    -0.5690    -1.7990 ca         1 3YA      -0.127500
      4 N1          -8.8330     1.1520     0.8930 na         1 3YA      -0.903200
      5 C2          -9.9490     0.8250     0.2130 cc         1 3YA       0.894100
      6 N3         -10.0060    -0.0770    -0.6980 nd         1 3YA      -0.791100
      7 C4          -8.9000    -0.8180    -1.0690 c          1 3YA       0.756100
      8 S5          -6.1060     0.7190     1.3710 ss         1 3YA       0.167000
      9 C6          -5.4250    -0.5530     0.3430 cc         1 3YA      -0.175300
     10 C7          -6.3820    -1.0890    -0.4970 cd         1 3YA      -0.061000
     11 C8          -7.6770    -0.5040    -0.3460 cd         1 3YA      -0.240600
     12 C9          -7.6630     0.4520     0.6070 cc         1 3YA       0.169000
     13 C12          3.5710    -0.5030    -0.6280 ca         1 3YA      -0.101600
     14 C17          5.0270    -0.9310    -0.5570 c          1 3YA       0.594700
     15 O18          5.5340    -1.6500    -1.4110 o          1 3YA      -0.638100
     16 N19          5.7520    -0.4740     0.5280 ns         1 3YA      -0.417900
     17 C20          7.1910    -0.7310     0.7800 c3         1 3YA      -0.051300
     18 C21          8.0890     0.4490     0.3180 c3         1 3YA      -0.054400
     19 C22          8.0390     0.7450    -1.2040 c3         1 3YA      -0.201400
     20 C23          9.0480     1.8530    -1.5610 c          1 3YA       0.713000
     21 O24         10.1920     1.5260    -1.8390 o          1 3YA      -0.761000
     22 O25          8.6760     3.0150    -1.5020 o          1 3YA      -0.761000
     23 C26          7.4180    -1.0530     2.2890 c          1 3YA       0.718000
     24 O27          7.9990    -2.0900     2.5780 o          1 3YA      -0.742000
     25 O28          6.9280    -0.3060     3.1260 o          1 3YA      -0.742000
     26 C29         -3.9730    -0.9390     0.4420 c3         1 3YA      -0.014100
     27 C30         -3.0450     0.0570    -0.2850 c3         1 3YA      -0.075400
     28 C31         -1.5520    -0.3300    -0.1990 c3         1 3YA      -0.077400
     29 C33          0.8400     0.2620    -0.8240 ca         1 3YA      -0.105300
     30 C15          1.6280     0.7090     0.2500 ca         1 3YA      -0.127500
     31 H1           3.5500     0.7050     1.1980 ha         1 3YA       0.133500
     32 H2           3.1900    -1.5900    -2.4720 ha         1 3YA       0.133500
     33 H3           0.8200    -0.9260    -2.6350 ha         1 3YA       0.094000
     34 H5          -6.1690    -1.8810    -1.2110 ha         1 3YA       0.157000
     35 H6         -11.0990     1.6650     1.5260 hn         1 3YA       0.500000
     36 H7         -11.8430     1.0780     0.1210 hn         1 3YA       0.500000
     37 H8           5.2540     0.0870     1.2060 hn         1 3YA       0.296500
     38 H9           7.4890    -1.6270     0.2200 h1         1 3YA       0.057700
     39 H10          7.8100     1.3540     0.8720 hc         1 3YA       0.050200
     40 H11          9.1260     0.2210     0.5960 hc         1 3YA       0.050200
     41 H12          8.3090    -0.1950    -1.7010 hc         1 3YA       0.009200
     42 H13          7.0160     1.0800    -1.4170 hc         1 3YA       0.009200
     43 H16         -3.6810    -1.0000     1.4980 hc         1 3YA       0.060200
     44 H17         -3.8270    -1.9410     0.0210 hc         1 3YA       0.060200
     45 H18         -3.3430     0.1180    -1.3390 hc         1 3YA       0.038200
     46 H19         -3.1840     1.0570     0.1440 hc         1 3YA       0.038200
     47 H20         -1.2550    -0.3920     0.8550 hc         1 3YA       0.049200
     48 H21         -1.4120    -1.3290    -0.6300 hc         1 3YA       0.049200
     49 H24          1.1930     1.3490     1.0140 ha         1 3YA       0.094000
     50 H25         -8.8650     1.9070     1.5620 hn         1 3YA       0.506000
     51 C32         -0.6250     0.6660    -0.9260 c3         1 3YA      -0.018100
     52 O10         -8.9880    -1.6670    -1.9430 o          1 3YA      -0.560100
     53 H22         -0.9240     0.7340    -1.9790 hc         1 3YA       0.033700
     54 H23         -0.7680     1.6680    -0.5020 hc         1 3YA       0.033700
     55 N11        -11.0160     1.4810     0.5380 nv         1 3YA      -1.061200
@<TRIPOS>BOND
     1     1    13 ar  
     2     1    30 ar  
     3     1    31 1   
     4     2     3 ar  
     5     2    13 ar  
     6     2    32 1   
     7     3    29 ar  
     8     3    33 1   
     9     4     5 1   
    10     4    12 1   
    11     4    50 1   
    12     5     6 2   
    13     5    55 1   
    14     6     7 1   
    15     7    11 1   
    16     7    52 2   
    17     8     9 1   
    18     8    12 1   
    19     9    10 2   
    20     9    26 1   
    21    10    11 1   
    22    10    34 1   
    23    11    12 2   
    24    13    14 1   
    25    14    15 2   
    26    14    16 1   
    27    16    17 1   
    28    16    37 1   
    29    17    18 1   
    30    17    23 1   
    31    17    38 1   
    32    18    19 1   
    33    18    39 1   
    34    18    40 1   
    35    19    20 1   
    36    19    41 1   
    37    19    42 1   
    38    20    21 1   
    39    20    22 1   
    40    23    24 1   
    41    23    25 1   
    42    26    27 1   
    43    26    43 1   
    44    26    44 1   
    45    27    28 1   
    46    27    45 1   
    47    27    46 1   
    48    28    47 1   
    49    28    48 1   
    50    28    51 1   
    51    29    30 ar  
    52    29    51 1   
    53    30    49 1   
    54    35    55 1   
    55    36    55 1   
    56    51    53 1   
    57    51    54 1   
@<TRIPOS>SUBSTRUCTURE
     1 3YA         1 TEMP              0 ****  ****    0 ROOT
