@<TRIPOS>MOLECULE
3YA
   55    57     1     0     0
SMALL
bcc


@<TRIPOS>ATOM
      1 C13          3.0340     0.4700    -0.7760 ca         1 3YA      -0.095000
      2 C14          2.6420    -1.6890    -1.7360 ca         1 3YA      -0.095000
      3 C16          1.3000    -1.3790    -1.8820 ca         1 3YA      -0.145500
      4 N1          -8.5870     1.5040     0.2070 na         1 3YA      -0.709600
      5 C2          -9.7600     0.8120     0.1570 cc         1 3YA       0.894100
      6 N3          -9.8370    -0.4880     0.2620 nd         1 3YA      -0.791100
      7 C4          -8.7210    -1.2600     0.4310 c          1 3YA       0.756100
      8 S5          -5.8550     1.4580     0.4700 ss         1 3YA      -0.122800
      9 C6          -5.1660    -0.1380     0.6780 cc         1 3YA      -0.030400
     10 C7          -6.1280    -1.0900     0.6660 cd         1 3YA      -0.079000
     11 C8          -7.4440    -0.5630     0.4940 cd         1 3YA      -0.240600
     12 C9          -7.4350     0.7980     0.3770 cc         1 3YA       0.175500
     13 C12          3.5250    -0.7740    -1.1680 ca         1 3YA      -0.101600
     14 C17          4.9650    -1.1620    -1.0430 c          1 3YA       0.661700
     15 O18          5.4410    -2.0360    -1.7600 o          1 3YA      -0.638100
     16 N19          5.6860    -0.4870    -0.1380 ns         1 3YA      -0.484900
     17 C20          7.0550    -0.8320     0.1720 c3         1 3YA      -0.051300
     18 C21          7.7410     0.3470     0.8640 c3         1 3YA      -0.054400
     19 C22          7.8470     1.5820    -0.0150 c3         1 3YA      -0.201400
     20 C23          8.5750     2.7850     0.6100 c          1 3YA       0.923600
     21 O24          8.7660     3.7610    -0.1460 o          1 3YA      -0.866300
     22 O25          8.9100     2.7060     1.8080 o          1 3YA      -0.866300
     23 C26          7.1660    -2.1220     1.0260 c          1 3YA       0.928600
     24 O27          8.3230    -2.5720     1.1470 o          1 3YA      -0.847300
     25 O28          6.1240    -2.5850     1.5200 o          1 3YA      -0.847300
     26 C29         -3.6890    -0.2970     0.8050 c3         1 3YA      -0.014100
     27 C30         -2.9240     0.0760    -0.4660 c3         1 3YA      -0.075400
     28 C31         -1.4300    -0.1910    -0.3340 c3         1 3YA      -0.077400
     29 C33          0.8010    -0.1400    -1.4840 ca         1 3YA      -0.105300
     30 C15          1.6920     0.7790    -0.9340 ca         1 3YA      -0.145500
     31 H1           3.6950     1.2260    -0.3700 ha         1 3YA       0.151500
     32 H2           3.0060    -2.6540    -2.0630 ha         1 3YA       0.151500
     33 H3           0.6310    -2.1100    -2.3210 ha         1 3YA       0.112000
     34 H5          -5.9130    -2.1440     0.7770 ha         1 3YA       0.175000
     35 H6         -10.8710     2.5350     0.0370 hn         1 3YA       0.444800
     36 H7         -11.7560     1.0650     0.0450 hn         1 3YA       0.444800
     37 H8           5.1900     0.0540     0.5520 hn         1 3YA       0.296500
     38 H9           7.5720    -1.0170    -0.7740 h1         1 3YA       0.057700
     39 H10          7.2100     0.5870     1.7910 hc         1 3YA       0.050200
     40 H11          8.7370     0.0190     1.1620 hc         1 3YA       0.050200
     41 H12          8.3510     1.3180    -0.9520 hc         1 3YA       0.009200
     42 H13          6.8490     1.9190    -0.3210 hc         1 3YA       0.009200
     43 H16         -3.3120     0.2940     1.6450 hc         1 3YA       0.060200
     44 H17         -3.4950    -1.3440     1.0540 hc         1 3YA       0.060200
     45 H18         -3.3270    -0.4930    -1.3090 hc         1 3YA       0.038200
     46 H19         -3.0860     1.1320    -0.7010 hc         1 3YA       0.038200
     47 H20         -1.0260     0.3730     0.5120 hc         1 3YA       0.049200
     48 H21         -1.2680    -1.2480    -0.1050 hc         1 3YA       0.049200
     49 H24          1.3340     1.7560    -0.6310 ha         1 3YA       0.112000
     50 H25         -8.5780     2.5100     0.1220 hn         1 3YA       0.450800
     51 C32         -0.6610     0.1770    -1.6040 c3         1 3YA      -0.018100
     52 O10         -8.8010    -2.4810     0.5270 o          1 3YA      -0.560100
     53 H22         -1.0890    -0.3630    -2.4530 hc         1 3YA       0.033700
     54 H23         -0.7940     1.2430    -1.8100 hc         1 3YA       0.033700
     55 N11        -10.8700     1.5330    -0.0380 nv         1 3YA      -0.950800
@<TRIPOS>BOND
     1     1    13 ar  
     2     1    30 ar  
     3     1    31 1   
     4     2     3 ar  
     5     2    13 ar  
     6     2    32 1   
     7     3    29 ar  
     8     3    33 1   
     9     4     5 1   
    10     4    12 1   
    11     4    50 1   
    12     5     6 2   
    13     5    55 1   
    14     6     7 1   
    15     7    11 1   
    16     7    52 2   
    17     8     9 1   
    18     8    12 1   
    19     9    10 2   
    20     9    26 1   
    21    10    11 1   
    22    10    34 1   
    23    11    12 2   
    24    13    14 1   
    25    14    15 2   
    26    14    16 1   
    27    16    17 1   
    28    16    37 1   
    29    17    18 1   
    30    17    23 1   
    31    17    38 1   
    32    18    19 1   
    33    18    39 1   
    34    18    40 1   
    35    19    20 1   
    36    19    41 1   
    37    19    42 1   
    38    20    21 1   
    39    20    22 1   
    40    23    24 1   
    41    23    25 1   
    42    26    27 1   
    43    26    43 1   
    44    26    44 1   
    45    27    28 1   
    46    27    45 1   
    47    27    46 1   
    48    28    47 1   
    49    28    48 1   
    50    28    51 1   
    51    29    30 ar  
    52    29    51 1   
    53    30    49 1   
    54    35    55 1   
    55    36    55 1   
    56    51    53 1   
    57    51    54 1   
@<TRIPOS>SUBSTRUCTURE
     1 3YA         1 TEMP              0 ****  ****    0 ROOT
