@<TRIPOS>MOLECULE
3YB
   53    55     1     0     0
SMALL
No Charge or Current Charge


@<TRIPOS>ATOM
      1 N1          -8.1100    -0.6610    -1.9280 nc         1 3YB      -0.704100
      2 C2          -9.3420    -0.3310    -1.6210 cd         1 3YB       0.715800
      3 N3          -9.8030     0.1090    -0.4340 ns         1 3YB      -0.457400
      4 C4          -9.0080     0.2720     0.6530 c          1 3YB       0.622600
      5 N5          -5.8800    -0.7700    -0.8310 na         1 3YB      -0.103000
      6 C6          -5.3840    -0.4870     0.4500 cc         1 3YB      -0.149300
      7 C7          -6.4640    -0.0630     1.1860 cd         1 3YB      -0.101000
      8 C8          -7.6120    -0.0830     0.3610 cd         1 3YB      -0.302600
      9 C9          -7.2430    -0.5180    -0.8730 cc         1 3YB       0.153400
     10 O10         -9.4250     0.6670     1.7300 o          1 3YB      -0.558000
     11 N11        -10.2200    -0.4420    -2.6050 nv         1 3YB      -1.046200
     12 C12          1.6470     0.3430     0.0340 cc         1 3YB      -0.115000
     13 C13          2.9220     0.3400     0.5460 cd         1 3YB      -0.217600
     14 S14          3.1010     1.5600     1.8150 ss         1 3YB       0.240000
     15 C15          1.4070     2.0380     1.5980 cd         1 3YB      -0.278000
     16 C16          0.7800     1.3000     0.6250 cc         1 3YB      -0.124300
     17 O18          3.8450    -1.4050    -0.7990 o          1 3YB      -0.628100
     18 N19          5.1910    -0.3910     0.7500 ns         1 3YB      -0.421900
     19 C20          6.4510    -1.1270     0.4830 c3         1 3YB      -0.050300
     20 C21          7.4140    -0.3270    -0.4360 c3         1 3YB      -0.055400
     21 C22          6.8600    -0.0280    -1.8540 c3         1 3YB      -0.202400
     22 C23          7.9390     0.6640    -2.7090 c          1 3YB       0.713000
     23 O24          8.0120     1.8820    -2.6730 o          1 3YB      -0.760000
     24 O25          8.7080    -0.0380    -3.3470 o          1 3YB      -0.760000
     25 C26          7.1420    -1.5080     1.8270 c          1 3YB       0.718000
     26 O27          7.2790    -0.6400     2.6800 o          1 3YB      -0.740500
     27 O28          7.4350    -2.6800     2.0150 o          1 3YB      -0.740500
     28 C29         -3.9460    -0.6440     0.8680 c3         1 3YB      -0.018100
     29 C30         -3.0370     0.4710     0.3080 c3         1 3YB      -0.075400
     30 C31         -1.5620     0.3280     0.7440 c3         1 3YB      -0.078400
     31 C32         -0.6540     1.4440     0.1860 c3         1 3YB       0.001900
     32 H1         -10.7790     0.3130    -0.3120 hn         1 3YB       0.313500
     33 H2          -5.3380    -1.1080    -1.6150 hn         1 3YB       0.361000
     34 H3          -6.4360     0.2390     2.2300 ha         1 3YB       0.144000
     35 H4          -9.7940    -0.5800    -3.5120 hn         1 3YB       0.489500
     36 H5         -11.0170     0.1820    -2.5890 hn         1 3YB       0.489500
     37 H6           1.3130    -0.3240    -0.7560 ha         1 3YB       0.143000
     38 H7           0.9890     2.8300     2.2060 h4         1 3YB       0.128000
     39 H8           5.2030     0.3060     1.4840 hn         1 3YB       0.297500
     40 H9           6.2010    -2.0690    -0.0210 h1         1 3YB       0.056700
     41 H10          7.6810     0.6180     0.0540 hc         1 3YB       0.051200
     42 H11          8.3450    -0.8990    -0.5370 hc         1 3YB       0.051200
     43 H12          6.5960    -1.0020    -2.2840 hc         1 3YB       0.010200
     44 H13          6.0010     0.6400    -1.7120 hc         1 3YB       0.010200
     45 H16         -3.8810    -0.6450     1.9640 hc         1 3YB       0.058700
     46 H17         -3.5700    -1.6200     0.5350 hc         1 3YB       0.058700
     47 H18         -3.0920     0.4640    -0.7870 hc         1 3YB       0.035700
     48 H19         -3.4200     1.4430     0.6420 hc         1 3YB       0.035700
     49 H20         -1.5050     0.3380     1.8400 hc         1 3YB       0.050700
     50 H21         -1.1800    -0.6460     0.4130 hc         1 3YB       0.050700
     51 H22         -1.0420     2.4180     0.5080 hc         1 3YB       0.033700
     52 H23         -0.7050     1.4370    -0.9100 hc         1 3YB       0.033700
     53 C17          3.9980    -0.5690     0.0830 c          1 3YB       0.622700
@<TRIPOS>BOND
     1     1     2 2   
     2     1     9 1   
     3     2     3 1   
     4     2    11 1   
     5     3     4 1   
     6     3    32 1   
     7     4     8 1   
     8     4    10 2   
     9     5     6 1   
    10     5     9 1   
    11     5    33 1   
    12     6     7 2   
    13     6    28 1   
    14     7     8 1   
    15     7    34 1   
    16     8     9 2   
    17    11    35 1   
    18    11    36 1   
    19    12    13 2   
    20    12    16 1   
    21    12    37 1   
    22    13    14 1   
    23    13    53 1   
    24    14    15 1   
    25    15    16 2   
    26    15    38 1   
    27    16    31 1   
    28    17    53 2   
    29    18    19 1   
    30    18    39 1   
    31    18    53 1   
    32    19    20 1   
    33    19    25 1   
    34    19    40 1   
    35    20    21 1   
    36    20    41 1   
    37    20    42 1   
    38    21    22 1   
    39    21    43 1   
    40    21    44 1   
    41    22    23 1   
    42    22    24 1   
    43    25    26 1   
    44    25    27 1   
    45    28    29 1   
    46    28    45 1   
    47    28    46 1   
    48    29    30 1   
    49    29    47 1   
    50    29    48 1   
    51    30    31 1   
    52    30    49 1   
    53    30    50 1   
    54    31    51 1   
    55    31    52 1   
@<TRIPOS>SUBSTRUCTURE
     1 3YB         1 TEMP              0 ****  ****    0 ROOT
