@<TRIPOS>MOLECULE
3YB
   53    55     1     0     0
SMALL
bcc


@<TRIPOS>ATOM
      1 N1          -8.0950    -1.1510    -1.2170 nc         1 3YB      -0.704100
      2 C2          -9.3460    -0.8390    -1.0160 cd         1 3YB       0.715800
      3 N3          -9.7620    -0.0690     0.0320 ns         1 3YB      -0.524400
      4 C4          -8.9360     0.4690     1.0260 c          1 3YB       0.765100
      5 N5          -5.9170    -0.8400    -0.2820 na         1 3YB      -0.154100
      6 C6          -5.3540    -0.2000     0.8070 cc         1 3YB      -0.098600
      7 C7          -6.3540     0.4120     1.5040 cd         1 3YB      -0.119000
      8 C8          -7.5720     0.1320     0.8140 cd         1 3YB      -0.302600
      9 C9          -7.2530    -0.6520    -0.2910 cc         1 3YB       0.204100
     10 O10         -9.4230     1.1350     1.9290 o          1 3YB      -0.633500
     11 N11        -10.3040    -1.3140    -1.8350 nv         1 3YB      -0.935800
     12 C12          1.4700     0.2380    -0.7490 cc         1 3YB      -0.133000
     13 C13          2.7860     0.4060    -0.4310 cd         1 3YB      -0.072700
     14 S14          3.0640     1.9850     0.2060 ss         1 3YB      -0.049800
     15 C15          1.4110     2.3950     0.0520 cd         1 3YB      -0.151100
     16 C16          0.6660     1.3790    -0.4720 cc         1 3YB      -0.124300
     17 O18          3.6270    -1.5900    -1.3320 o          1 3YB      -0.628100
     18 N19          5.0320    -0.3590    -0.0600 ns         1 3YB      -0.488900
     19 C20          6.1270    -1.3030    -0.1140 c3         1 3YB      -0.050300
     20 C21          7.4390    -0.5870     0.2090 c3         1 3YB      -0.055400
     21 C22          7.7790     0.5280    -0.7660 c3         1 3YB      -0.202400
     22 C23          9.1340     1.2220    -0.5350 c          1 3YB       0.923600
     23 O24          9.3620     2.2210    -1.2500 o          1 3YB      -0.865300
     24 O25          9.8980     0.7420     0.3250 o          1 3YB      -0.865300
     25 C26          5.9140    -2.5170     0.8270 c          1 3YB       0.928600
     26 O27          4.9890    -2.4560     1.6540 o          1 3YB      -0.845800
     27 O28          6.7280    -3.4490     0.6710 o          1 3YB      -0.845800
     28 C29         -3.8830    -0.2200     1.0380 c3         1 3YB      -0.018100
     29 C30         -3.0990     0.6400     0.0430 c3         1 3YB      -0.075400
     30 C31         -1.5970     0.5740     0.2830 c3         1 3YB      -0.078400
     31 C32         -0.8120     1.4380    -0.7040 c3         1 3YB       0.001900
     32 H1         -10.7490     0.1260     0.1280 hn         1 3YB       0.313500
     33 H2          -5.4110    -1.3860    -0.9630 hn         1 3YB       0.310700
     34 H3          -6.2290     0.9980     2.4010 ha         1 3YB       0.162000
     35 H4          -9.9990    -1.7340    -2.6970 hn         1 3YB       0.434300
     36 H5         -11.2100    -0.8780    -1.8620 hn         1 3YB       0.434300
     37 H6           1.0830    -0.6780    -1.1730 ha         1 3YB       0.161000
     38 H7           1.0700     3.3760     0.3490 h4         1 3YB       0.146000
     39 H8           5.0850     0.3410     0.6630 hn         1 3YB       0.297500
     40 H9           6.1880    -1.6800    -1.1390 h1         1 3YB       0.056700
     41 H10          7.3940    -0.1940     1.2310 hc         1 3YB       0.051200
     42 H11          8.2320    -1.3340     0.2060 hc         1 3YB       0.051200
     43 H12          7.7760     0.1270    -1.7880 hc         1 3YB       0.010200
     44 H13          6.9990     1.2960    -0.7640 hc         1 3YB       0.010200
     45 H16         -3.6910     0.1340     2.0540 hc         1 3YB       0.058700
     46 H17         -3.5150    -1.2500     0.9950 hc         1 3YB       0.058700
     47 H18         -3.3190     0.3180    -0.9790 hc         1 3YB       0.035700
     48 H19         -3.4410     1.6760     0.1200 hc         1 3YB       0.035700
     49 H20         -1.3710     0.8990     1.3030 hc         1 3YB       0.050700
     50 H21         -1.2600    -0.4650     0.2080 hc         1 3YB       0.050700
     51 H22         -1.1510     2.4750    -0.6310 hc         1 3YB       0.033700
     52 H23         -1.0340     1.1100    -1.7240 hc         1 3YB       0.033700
     53 C17          3.8480    -0.6070    -0.6340 c          1 3YB       0.689700
@<TRIPOS>BOND
     1     1     2 2   
     2     1     9 1   
     3     2     3 1   
     4     2    11 1   
     5     3     4 1   
     6     3    32 1   
     7     4     8 1   
     8     4    10 2   
     9     5     6 1   
    10     5     9 1   
    11     5    33 1   
    12     6     7 2   
    13     6    28 1   
    14     7     8 1   
    15     7    34 1   
    16     8     9 2   
    17    11    35 1   
    18    11    36 1   
    19    12    13 2   
    20    12    16 1   
    21    12    37 1   
    22    13    14 1   
    23    13    53 1   
    24    14    15 1   
    25    15    16 2   
    26    15    38 1   
    27    16    31 1   
    28    17    53 2   
    29    18    19 1   
    30    18    39 1   
    31    18    53 1   
    32    19    20 1   
    33    19    25 1   
    34    19    40 1   
    35    20    21 1   
    36    20    41 1   
    37    20    42 1   
    38    21    22 1   
    39    21    43 1   
    40    21    44 1   
    41    22    23 1   
    42    22    24 1   
    43    25    26 1   
    44    25    27 1   
    45    28    29 1   
    46    28    45 1   
    47    28    46 1   
    48    29    30 1   
    49    29    47 1   
    50    29    48 1   
    51    30    31 1   
    52    30    49 1   
    53    30    50 1   
    54    31    51 1   
    55    31    52 1   
@<TRIPOS>SUBSTRUCTURE
     1 3YB         1 TEMP              0 ****  ****    0 ROOT
