@<TRIPOS>MOLECULE
3YC
   53    55     1     0     0
SMALL
No Charge or Current Charge


@<TRIPOS>ATOM
      1 N1          24.3200   -11.6600    26.1480 nc         1 3YC      -0.694100
      2 C2          23.2920   -12.3150    25.6630 cd         1 3YC       0.714800
      3 N3          23.0790   -13.6450    25.6910 ns         1 3YC      -0.457400
      4 C4          23.9500   -14.5220    26.2520 c          1 3YC       0.623600
      5 N5          26.4440   -12.1460    27.3470 na         1 3YC      -0.099000
      6 C6          27.0820   -13.3040    27.8190 cc         1 3YC      -0.155300
      7 C7          26.2580   -14.3490    27.4810 cd         1 3YC      -0.104000
      8 C8          25.1220   -13.8370    26.8130 cd         1 3YC      -0.306600
      9 C9          25.2460   -12.4850    26.7370 cc         1 3YC       0.162400
     10 O10         23.7600   -15.7280    26.2720 o          1 3YC      -0.565000
     11 N11         22.3610   -11.5690    25.0900 nv         1 3YC      -1.042200
     12 C12         27.2710   -10.2310    33.6070 cc         1 3YC      -0.084000
     13 C13         26.3150    -9.2930    34.1000 cc         1 3YC      -0.132600
     14 C14         25.0220    -9.6460    33.7870 cd         1 3YC      -0.185000
     15 S15         24.9530   -11.1590    32.8680 ss         1 3YC       0.093000
     16 C16         26.7180   -11.2830    32.9250 cd         1 3YC      -0.231300
     17 O18         25.7860    -7.2750    35.2800 o          1 3YC      -0.640100
     18 N19         27.9860    -7.8570    35.0880 ns         1 3YC      -0.419900
     19 C20         28.5850    -6.7380    35.8550 c3         1 3YC      -0.049300
     20 C21         28.9220    -7.1410    37.3160 c3         1 3YC      -0.058400
     21 C22         27.6970    -7.5490    38.1760 c3         1 3YC      -0.202400
     22 C23         28.1350    -7.8150    39.6300 c          1 3YC       0.712000
     23 O24         28.1500    -6.8750    40.4100 o          1 3YC      -0.759500
     24 O25         28.4970    -8.9430    39.9280 o          1 3YC      -0.759500
     25 C26         29.8460    -6.1980    35.1130 c          1 3YC       0.719000
     26 O27         29.8960    -5.0050    34.8500 o          1 3YC      -0.740500
     27 O28         30.6950    -7.0000    34.7430 o          1 3YC      -0.740500
     28 C29         28.4040   -13.3260    28.5390 c3         1 3YC      -0.010100
     29 C30         28.2660   -13.4740    30.0710 c3         1 3YC      -0.074400
     30 C31         27.5300   -12.2950    30.7500 c3         1 3YC      -0.080400
     31 C32         27.4340   -12.4430    32.2830 c3         1 3YC       0.006900
     32 H1          22.2570   -14.0380    25.2670 hn         1 3YC       0.313500
     33 H2          26.7930   -11.2000    27.4330 hn         1 3YC       0.367000
     34 H3          26.4490   -15.3970    27.6960 ha         1 3YC       0.139000
     35 H4          22.4680   -10.5790    25.2700 hn         1 3YC       0.489500
     36 H5          21.4100   -11.9140    25.1110 hn         1 3YC       0.489500
     37 H6          28.3420   -10.1250    33.7540 ha         1 3YC       0.146000
     38 H7          24.1070    -9.1200    34.0350 h4         1 3YC       0.162000
     39 H8          28.6160    -8.5400    34.6880 hn         1 3YC       0.296500
     40 H9          27.8620    -5.9120    35.8860 h1         1 3YC       0.056700
     41 H10         29.6480    -7.9640    37.3070 hc         1 3YC       0.050200
     42 H11         29.4220    -6.2920    37.8000 hc         1 3YC       0.050200
     43 H12         27.0050    -6.6990    38.1340 hc         1 3YC       0.008700
     44 H13         27.2990    -8.4670    37.7250 hc         1 3YC       0.008700
     45 H16         29.0070   -14.1610    28.1600 hc         1 3YC       0.049200
     46 H17         28.9720   -12.4140    28.3150 hc         1 3YC       0.049200
     47 H18         27.7370   -14.4090    30.2930 hc         1 3YC       0.042200
     48 H19         29.2690   -13.5670    30.5050 hc         1 3YC       0.042200
     49 H20         28.0490   -11.3580    30.5130 hc         1 3YC       0.046700
     50 H21         26.5160   -12.2130    30.3390 hc         1 3YC       0.046700
     51 H22         26.9140   -13.3790    32.5230 hc         1 3YC       0.044200
     52 H23         28.4450   -12.5360    32.6990 hc         1 3YC       0.044200
     53 C17         26.6370    -8.0580    34.8730 c          1 3YC       0.616700
@<TRIPOS>BOND
     1     1     2 2   
     2     1     9 1   
     3     2     3 1   
     4     2    11 1   
     5     3     4 1   
     6     3    32 1   
     7     4     8 1   
     8     4    10 2   
     9     5     6 1   
    10     5     9 1   
    11     5    33 1   
    12     6     7 2   
    13     6    28 1   
    14     7     8 1   
    15     7    34 1   
    16     8     9 2   
    17    11    35 1   
    18    11    36 1   
    19    12    13 1   
    20    12    16 2   
    21    12    37 1   
    22    13    14 2   
    23    13    53 1   
    24    14    15 1   
    25    14    38 1   
    26    15    16 1   
    27    16    31 1   
    28    17    53 2   
    29    18    19 1   
    30    18    39 1   
    31    18    53 1   
    32    19    20 1   
    33    19    25 1   
    34    19    40 1   
    35    20    21 1   
    36    20    41 1   
    37    20    42 1   
    38    21    22 1   
    39    21    43 1   
    40    21    44 1   
    41    22    23 1   
    42    22    24 1   
    43    25    26 1   
    44    25    27 1   
    45    28    29 1   
    46    28    45 1   
    47    28    46 1   
    48    29    30 1   
    49    29    47 1   
    50    29    48 1   
    51    30    31 1   
    52    30    49 1   
    53    30    50 1   
    54    31    51 1   
    55    31    52 1   
@<TRIPOS>SUBSTRUCTURE
     1 3YC         1 TEMP              0 ****  ****    0 ROOT
