@<TRIPOS>MOLECULE
3YC
   53    55     1     0     0
SMALL
abcg2


@<TRIPOS>ATOM
      1 N1          24.9830   -11.4900    26.4150 nc         1 3YC      -0.694100
      2 C2          24.0260   -11.8670    25.6120 cd         1 3YC       0.714800
      3 N3          23.7370   -13.1780    25.3620 ns         1 3YC      -0.457400
      4 C4          24.4100   -14.2780    25.9050 c          1 3YC       0.623600
      5 N5          26.7020   -12.3750    27.8220 na         1 3YC      -0.099000
      6 C6          27.1750   -13.6190    28.1990 cc         1 3YC      -0.155300
      7 C7          26.4230   -14.5670    27.5670 cd         1 3YC      -0.104000
      8 C8          25.4550   -13.8740    26.7810 cd         1 3YC      -0.306600
      9 C9          25.6650   -12.5110    26.9680 cc         1 3YC       0.162400
     10 O10         24.0700   -15.4130    25.6040 o          1 3YC      -0.565000
     11 N11         23.2980   -10.9440    24.9490 nv         1 3YC      -1.042200
     12 C12         26.6830   -10.3710    33.9030 cc         1 3YC      -0.084000
     13 C13         25.7670    -9.3030    34.1580 cc         1 3YC      -0.132600
     14 C14         24.5680    -9.5050    33.5390 cd         1 3YC      -0.185000
     15 S15         24.5490   -10.9610    32.6530 ss         1 3YC       0.093000
     16 C16         26.1710   -11.3490    33.1080 cd         1 3YC      -0.231300
     17 O18         25.0680    -7.3730    35.3280 o          1 3YC      -0.640100
     18 N19         27.2740    -7.8580    35.3380 ns         1 3YC      -0.419900
     19 C20         27.6840    -6.6620    36.0400 c3         1 3YC      -0.049300
     20 C21         29.0560    -6.8820    36.6780 c3         1 3YC      -0.058400
     21 C22         29.0960    -8.0190    37.6890 c3         1 3YC      -0.202400
     22 C23         30.4380    -8.1890    38.4310 c          1 3YC       0.712000
     23 O24         31.1430    -7.1700    38.5800 o          1 3YC      -0.759500
     24 O25         30.6940    -9.3360    38.8530 o          1 3YC      -0.759500
     25 C26         27.7010    -5.4000    35.1310 c          1 3YC       0.719000
     26 O27         27.8250    -4.3220    35.7440 o          1 3YC      -0.740500
     27 O28         27.6180    -5.5680    33.9020 o          1 3YC      -0.740500
     28 C29         28.2920   -13.7720    29.1740 c3         1 3YC      -0.010100
     29 C30         27.8440   -13.8140    30.6390 c3         1 3YC      -0.074400
     30 C31         27.1760   -12.5340    31.1220 c3         1 3YC      -0.080400
     31 C32         26.8380   -12.5890    32.6120 c3         1 3YC       0.006900
     32 H1          22.9830   -13.3960    24.7230 hn         1 3YC       0.313500
     33 H2          27.0810   -11.4920    28.1300 hn         1 3YC       0.367000
     34 H3          26.5510   -15.6340    27.6590 ha         1 3YC       0.139000
     35 H4          23.3790    -9.9950    25.2720 hn         1 3YC       0.489500
     36 H5          22.4040   -11.1910    24.5590 hn         1 3YC       0.489500
     37 H6          27.6830   -10.4410    34.3100 ha         1 3YC       0.146000
     38 H7          23.7000    -8.8640    33.5620 h4         1 3YC       0.162000
     39 H8          28.0010    -8.3890    34.8880 hn         1 3YC       0.296500
     40 H9          26.9610    -6.4820    36.8410 h1         1 3YC       0.056700
     41 H10         29.7970    -7.0550    35.8880 hc         1 3YC       0.050200
     42 H11         29.3460    -5.9530    37.1680 hc         1 3YC       0.050200
     43 H12         28.3190    -7.8420    38.4450 hc         1 3YC       0.008700
     44 H13         28.8290    -8.9680    37.2170 hc         1 3YC       0.008700
     45 H16         28.8210   -14.6980    28.9450 hc         1 3YC       0.049200
     46 H17         29.0170   -12.9630    29.0390 hc         1 3YC       0.049200
     47 H18         27.1640   -14.6590    30.7800 hc         1 3YC       0.042200
     48 H19         28.7240   -14.0180    31.2570 hc         1 3YC       0.042200
     49 H20         27.8330   -11.6790    30.9340 hc         1 3YC       0.046700
     50 H21         26.2600   -12.3520    30.5530 hc         1 3YC       0.046700
     51 H22         26.2060   -13.4610    32.8070 hc         1 3YC       0.044200
     52 H23         27.7530   -12.7370    33.1910 hc         1 3YC       0.044200
     53 C17         26.0030    -8.0890    34.9850 c          1 3YC       0.616700
@<TRIPOS>BOND
     1     1     2 2   
     2     1     9 1   
     3     2     3 1   
     4     2    11 1   
     5     3     4 1   
     6     3    32 1   
     7     4     8 1   
     8     4    10 2   
     9     5     6 1   
    10     5     9 1   
    11     5    33 1   
    12     6     7 2   
    13     6    28 1   
    14     7     8 1   
    15     7    34 1   
    16     8     9 2   
    17    11    35 1   
    18    11    36 1   
    19    12    13 1   
    20    12    16 2   
    21    12    37 1   
    22    13    14 2   
    23    13    53 1   
    24    14    15 1   
    25    14    38 1   
    26    15    16 1   
    27    16    31 1   
    28    17    53 2   
    29    18    19 1   
    30    18    39 1   
    31    18    53 1   
    32    19    20 1   
    33    19    25 1   
    34    19    40 1   
    35    20    21 1   
    36    20    41 1   
    37    20    42 1   
    38    21    22 1   
    39    21    43 1   
    40    21    44 1   
    41    22    23 1   
    42    22    24 1   
    43    25    26 1   
    44    25    27 1   
    45    28    29 1   
    46    28    45 1   
    47    28    46 1   
    48    29    30 1   
    49    29    47 1   
    50    29    48 1   
    51    30    31 1   
    52    30    49 1   
    53    30    50 1   
    54    31    51 1   
    55    31    52 1   
@<TRIPOS>SUBSTRUCTURE
     1 3YC         1 TEMP              0 ****  ****    0 ROOT
