@<TRIPOS>MOLECULE
3YD
   52    53     1     0     0
SMALL
No Charge or Current Charge


@<TRIPOS>ATOM
      1 N1          -7.8420    -1.4290     0.7120 nc         1 3YD      -0.705100
      2 C2          -8.8900    -1.2300    -0.0530 cd         1 3YD       0.714800
      3 N3          -9.0730    -0.2450    -0.9530 ns         1 3YD      -0.456400
      4 C4          -8.1490     0.7190    -1.1940 c          1 3YD       0.622600
      5 N5          -5.6270    -0.3850     1.1500 na         1 3YD      -0.104000
      6 C6          -4.9330     0.7280     0.6520 cc         1 3YD      -0.150300
      7 C7          -5.7610     1.2990    -0.2840 cd         1 3YD      -0.100000
      8 C8          -6.9520     0.5410    -0.3610 cd         1 3YD      -0.300600
      9 C9          -6.8600    -0.4900     0.5220 cc         1 3YD       0.153400
     10 O10         -8.3170     1.6150    -2.0060 o          1 3YD      -0.558000
     11 N11         -9.8660    -2.1130     0.0830 nv         1 3YD      -1.046200
     12 C12          2.6210    -0.6810     0.2980 c3         1 3YD      -0.159400
     13 C13          1.5020     0.2250     0.8630 c3         1 3YD      -0.063400
     14 C14          0.0890    -0.2110     0.4190 c3         1 3YD      -0.076400
     15 C15         -1.0290     0.6920     0.9840 c3         1 3YD      -0.076400
     16 C16         -2.4420     0.2540     0.5390 c3         1 3YD      -0.076400
     17 C17          4.0090    -0.2140     0.7550 c          1 3YD       0.595100
     18 O18          4.4170    -0.3910     1.8960 o          1 3YD      -0.655100
     19 N19          4.7640     0.3960    -0.2250 ns         1 3YD      -0.430900
     20 C20          6.1520     0.8950    -0.0640 c3         1 3YD      -0.044300
     21 C21          7.2040    -0.1120    -0.6040 c3         1 3YD      -0.055400
     22 C22          7.2300    -1.4790     0.1300 c3         1 3YD      -0.201400
     23 C23          8.3790    -2.3500    -0.4150 c          1 3YD       0.712000
     24 O24          9.4790    -2.2460     0.1040 o          1 3YD      -0.762000
     25 O25          8.1530    -3.0710    -1.3750 o          1 3YD      -0.762000
     26 C26          6.3020     2.2900    -0.7460 c          1 3YD       0.718000
     27 O27          5.9400     2.4160    -1.9090 o          1 3YD      -0.745000
     28 O28          6.6980     3.2270    -0.0660 o          1 3YD      -0.745000
     29 C29         -3.5620     1.1560     1.1010 c3         1 3YD      -0.017100
     30 H1          -9.9330    -0.1840    -1.4720 hn         1 3YD       0.314500
     31 H2          -5.2920    -1.0230     1.8590 hn         1 3YD       0.359000
     32 H3          -5.5350     2.1870    -0.8680 ha         1 3YD       0.145000
     33 H4          -9.5980    -2.9310     0.6150 hn         1 3YD       0.489500
     34 H5         -10.4470    -2.2920    -0.7260 hn         1 3YD       0.489500
     35 H6           2.4550    -1.7020     0.6590 hc         1 3YD       0.039700
     36 H7           2.5600    -0.6620    -0.7970 hc         1 3YD       0.039700
     37 H8           1.5530     0.2200     1.9600 hc         1 3YD       0.052700
     38 H9           1.6790     1.2590     0.5410 hc         1 3YD       0.052700
     39 H10          0.0380    -0.2040    -0.6770 hc         1 3YD       0.030700
     40 H11         -0.0860    -1.2450     0.7410 hc         1 3YD       0.030700
     41 H12         -0.9780     0.6860     2.0800 hc         1 3YD       0.038700
     42 H13         -0.8540     1.7260     0.6610 hc         1 3YD       0.038700
     43 H14         -2.4950     0.2620    -0.5570 hc         1 3YD       0.039200
     44 H15         -2.6170    -0.7800     0.8600 hc         1 3YD       0.039200
     45 H16          4.3240     0.5070    -1.1310 hn         1 3YD       0.293500
     46 H17          6.3440     1.0470     1.0060 h1         1 3YD       0.055700
     47 H18          7.0290    -0.2800    -1.6740 hc         1 3YD       0.049700
     48 H19          8.1960     0.3500    -0.5200 hc         1 3YD       0.049700
     49 H20          7.3940    -1.2460     1.1890 hc         1 3YD       0.009200
     50 H21          6.2630    -1.9540    -0.0740 hc         1 3YD       0.009200
     51 H24         -3.3800     2.1920     0.7890 hc         1 3YD       0.054200
     52 H25         -3.5150     1.1500     2.1980 hc         1 3YD       0.054200
@<TRIPOS>BOND
     1     1     2 2   
     2     1     9 1   
     3     2     3 1   
     4     2    11 1   
     5     3     4 1   
     6     3    30 1   
     7     4     8 1   
     8     4    10 2   
     9     5     6 1   
    10     5     9 1   
    11     5    31 1   
    12     6     7 2   
    13     6    29 1   
    14     7     8 1   
    15     7    32 1   
    16     8     9 2   
    17    11    33 1   
    18    11    34 1   
    19    12    13 1   
    20    12    17 1   
    21    12    35 1   
    22    12    36 1   
    23    13    14 1   
    24    13    37 1   
    25    13    38 1   
    26    14    15 1   
    27    14    39 1   
    28    14    40 1   
    29    15    16 1   
    30    15    41 1   
    31    15    42 1   
    32    16    29 1   
    33    16    43 1   
    34    16    44 1   
    35    17    18 2   
    36    17    19 1   
    37    19    20 1   
    38    19    45 1   
    39    20    21 1   
    40    20    26 1   
    41    20    46 1   
    42    21    22 1   
    43    21    47 1   
    44    21    48 1   
    45    22    23 1   
    46    22    49 1   
    47    22    50 1   
    48    23    24 1   
    49    23    25 1   
    50    26    27 1   
    51    26    28 1   
    52    29    51 1   
    53    29    52 1   
@<TRIPOS>SUBSTRUCTURE
     1 3YD         1 TEMP              0 ****  ****    0 ROOT
