@<TRIPOS>MOLECULE
3YD
   52    53     1     0     0
SMALL
abcg2


@<TRIPOS>ATOM
      1 N1          -7.4540    -1.6580     0.5980 nc         1 3YD      -0.705100
      2 C2          -8.5860    -1.6430    -0.0520 cd         1 3YD       0.714800
      3 N3          -8.9720    -0.6060    -0.8510 ns         1 3YD      -0.456400
      4 C4          -8.2360     0.5620    -1.0820 c          1 3YD       0.622600
      5 N5          -5.5000    -0.3370     0.9790 na         1 3YD      -0.104000
      6 C6          -5.0030     0.8920     0.5840 cc         1 3YD      -0.150300
      7 C7          -5.9130     1.4680    -0.2540 cd         1 3YD      -0.100000
      8 C8          -7.0040     0.5550    -0.3730 cd         1 3YD      -0.300600
      9 C9          -6.7050    -0.5540     0.4120 cc         1 3YD       0.153400
     10 O10         -8.6820     1.4290    -1.8230 o          1 3YD      -0.558000
     11 N11         -9.4570    -2.6630     0.0820 nv         1 3YD      -1.046200
     12 C12          2.5250    -0.0210     0.2010 c3         1 3YD      -0.159400
     13 C13          1.3700     0.7600     0.8100 c3         1 3YD      -0.063400
     14 C14          0.0180     0.3110     0.2710 c3         1 3YD      -0.076400
     15 C15         -1.1470     1.0630     0.9010 c3         1 3YD      -0.076400
     16 C16         -2.5040     0.5910     0.3980 c3         1 3YD      -0.076400
     17 C17          3.8760     0.3360     0.7910 c          1 3YD       0.595100
     18 O18          3.9940     0.7440     1.9410 o          1 3YD      -0.655100
     19 N19          4.9240     0.1060    -0.0100 ns         1 3YD      -0.430900
     20 C20          6.2840     0.4340     0.3500 c3         1 3YD      -0.044300
     21 C21          7.2590    -0.3980    -0.4860 c3         1 3YD      -0.055400
     22 C22          7.1150    -1.8960    -0.2710 c3         1 3YD      -0.201400
     23 C23          8.1210    -2.7790    -1.0300 c          1 3YD       0.712000
     24 O24          9.0550    -2.2160    -1.6340 o          1 3YD      -0.762000
     25 O25          7.9230    -4.0110    -0.9650 o          1 3YD      -0.762000
     26 C26          6.5900     1.9470     0.2100 c          1 3YD       0.718000
     27 O27          5.7700     2.6520    -0.4010 o          1 3YD      -0.745000
     28 O28          7.6700     2.3160     0.7180 o          1 3YD      -0.745000
     29 C29         -3.6640     1.3610     1.0350 c3         1 3YD      -0.017100
     30 H1          -9.8670    -0.6640    -1.3190 hn         1 3YD       0.314500
     31 H2          -5.0430    -0.9740     1.6130 hn         1 3YD       0.359000
     32 H3          -5.8070     2.4300    -0.7300 ha         1 3YD       0.145000
     33 H4          -9.1130    -3.4980     0.5240 hn         1 3YD       0.489500
     34 H5         -10.1830    -2.8010    -0.6010 hn         1 3YD       0.489500
     35 H6           2.3700    -1.0920     0.3720 hc         1 3YD       0.039700
     36 H7           2.5380     0.1070    -0.8850 hc         1 3YD       0.039700
     37 H8           1.3820     0.6410     1.8960 hc         1 3YD       0.052700
     38 H9           1.5020     1.8290     0.6170 hc         1 3YD       0.052700
     39 H10         -0.0100     0.4400    -0.8160 hc         1 3YD       0.030700
     40 H11         -0.1030    -0.7630     0.4510 hc         1 3YD       0.030700
     41 H12         -1.1050     0.9470     1.9900 hc         1 3YD       0.038700
     42 H13         -1.0380     2.1350     0.7060 hc         1 3YD       0.038700
     43 H14         -2.5570     0.7030    -0.6900 hc         1 3YD       0.039200
     44 H15         -2.6120    -0.4790     0.6010 hc         1 3YD       0.039200
     45 H16          4.7390    -0.1050    -0.9770 hn         1 3YD       0.293500
     46 H17          6.4250     0.1600     1.4000 h1         1 3YD       0.055700
     47 H18          7.1270    -0.1540    -1.5460 hc         1 3YD       0.049700
     48 H19          8.2700    -0.0840    -0.2270 hc         1 3YD       0.049700
     49 H20          7.2150    -2.1170     0.7990 hc         1 3YD       0.009200
     50 H21          6.1050    -2.2270    -0.5320 hc         1 3YD       0.009200
     51 H24         -3.5720     2.4220     0.7940 hc         1 3YD       0.054200
     52 H25         -3.5890     1.2840     2.1260 hc         1 3YD       0.054200
@<TRIPOS>BOND
     1     1     2 2   
     2     1     9 1   
     3     2     3 1   
     4     2    11 1   
     5     3     4 1   
     6     3    30 1   
     7     4     8 1   
     8     4    10 2   
     9     5     6 1   
    10     5     9 1   
    11     5    31 1   
    12     6     7 2   
    13     6    29 1   
    14     7     8 1   
    15     7    32 1   
    16     8     9 2   
    17    11    33 1   
    18    11    34 1   
    19    12    13 1   
    20    12    17 1   
    21    12    35 1   
    22    12    36 1   
    23    13    14 1   
    24    13    37 1   
    25    13    38 1   
    26    14    15 1   
    27    14    39 1   
    28    14    40 1   
    29    15    16 1   
    30    15    41 1   
    31    15    42 1   
    32    16    29 1   
    33    16    43 1   
    34    16    44 1   
    35    17    18 2   
    36    17    19 1   
    37    19    20 1   
    38    19    45 1   
    39    20    21 1   
    40    20    26 1   
    41    20    46 1   
    42    21    22 1   
    43    21    47 1   
    44    21    48 1   
    45    22    23 1   
    46    22    49 1   
    47    22    50 1   
    48    23    24 1   
    49    23    25 1   
    50    26    27 1   
    51    26    28 1   
    52    29    51 1   
    53    29    52 1   
@<TRIPOS>SUBSTRUCTURE
     1 3YD         1 TEMP              0 ****  ****    0 ROOT
