@<TRIPOS>MOLECULE
3YE
   55    56     1     0     0
SMALL
No Charge or Current Charge


@<TRIPOS>ATOM
      1 N1          -7.9130    -0.3280    -1.3570 nc         1 3YE      -0.704100
      2 C2          -8.8050     0.5830    -1.6650 cd         1 3YE       0.712800
      3 N3          -8.9000     1.8350    -1.1780 ns         1 3YE      -0.455400
      4 C4          -8.0370     2.3400    -0.2600 c          1 3YE       0.622600
      5 N5          -5.9310    -0.5720     0.1270 na         1 3YE      -0.104000
      6 C6          -5.2580     0.2560     1.0370 cc         1 3YE      -0.154300
      7 C7          -5.9370     1.4500     1.0300 cd         1 3YE      -0.097000
      8 C8          -7.0160     1.3550     0.1200 cd         1 3YE      -0.299600
      9 C9          -7.0020     0.1110    -0.4290 cc         1 3YE       0.154400
     10 O10         -8.1210     3.4760     0.1780 o          1 3YE      -0.555000
     11 N11         -9.7140     0.2100    -2.5520 nv         1 3YE      -1.038200
     12 C12          3.5720    -1.4600     1.7030 c3         1 3YE      -0.160400
     13 C13          2.3190    -1.0550     0.8920 c3         1 3YE      -0.067400
     14 C14          1.0320    -1.0210     1.7460 c3         1 3YE      -0.075400
     15 C17          4.8280    -1.4740     0.8230 c          1 3YE       0.596100
     16 O18          5.0540    -2.3690     0.0180 o          1 3YE      -0.654100
     17 N19          5.6970    -0.4260     1.0420 ns         1 3YE      -0.429900
     18 C20          6.9580    -0.1780     0.3020 c3         1 3YE      -0.044300
     19 C21          6.7740     0.8590    -0.8380 c3         1 3YE      -0.056400
     20 C22          5.7690     0.4380    -1.9440 c3         1 3YE      -0.201400
     21 C23          5.7580     1.4830    -3.0760 c          1 3YE       0.712000
     22 O24          6.5550     1.3510    -3.9920 o          1 3YE      -0.761500
     23 O25          4.9890     2.4270    -2.9840 o          1 3YE      -0.761500
     24 C26          8.0840     0.2600     1.2900 c          1 3YE       0.719000
     25 O27          9.1210    -0.3880     1.3110 o          1 3YE      -0.745500
     26 O28          7.8570     1.1800     2.0660 o          1 3YE      -0.745500
     27 C29         -4.0460    -0.1490     1.8320 c3         1 3YE      -0.015100
     28 C30         -2.7590    -0.1830     0.9810 c3         1 3YE      -0.077400
     29 C16         -1.5060    -0.5840     1.7900 c3         1 3YE      -0.075400
     30 C15         -0.2200    -0.6180     0.9360 c3         1 3YE      -0.075400
     31 H1          -9.6210     2.4550    -1.5050 hn         1 3YE       0.315500
     32 H2          -5.6830    -1.5270    -0.1010 hn         1 3YE       0.359000
     33 H3          -5.6840     2.3240     1.6260 ha         1 3YE       0.145000
     34 H4          -9.7190    -0.7860    -2.7320 hn         1 3YE       0.486500
     35 H5         -10.6250     0.6480    -2.4980 hn         1 3YE       0.486500
     36 H6           3.6960    -0.7440     2.5250 hc         1 3YE       0.043200
     37 H7           3.4120    -2.4660     2.1090 hc         1 3YE       0.043200
     38 H8           2.4830    -0.0660     0.4460 hc         1 3YE       0.049700
     39 H9           2.1820    -1.7600     0.0620 hc         1 3YE       0.049700
     40 H10          0.8690    -2.0100     2.1920 hc         1 3YE       0.030700
     41 H11          1.1680    -0.3140     2.5740 hc         1 3YE       0.030700
     42 H12          5.4310     0.2400     1.7580 hn         1 3YE       0.293500
     43 H13          7.2870    -1.1240    -0.1480 h1         1 3YE       0.053700
     44 H14          6.4560     1.8170    -0.4080 hc         1 3YE       0.049700
     45 H15          7.7520     1.0360    -1.3030 hc         1 3YE       0.049700
     46 H16          6.1250    -0.5300    -2.3190 hc         1 3YE       0.009700
     47 H17          4.7850     0.3900    -1.4610 hc         1 3YE       0.009700
     48 H20         -3.9060     0.5490     2.6680 hc         1 3YE       0.051700
     49 H21         -4.2120    -1.1370     2.2780 hc         1 3YE       0.051700
     50 H22         -2.8950    -0.8880     0.1520 hc         1 3YE       0.043200
     51 H23         -2.6000     0.8080     0.5360 hc         1 3YE       0.043200
     52 H24         -1.3700     0.1220     2.6180 hc         1 3YE       0.034700
     53 H25         -1.6680    -1.5740     2.2360 hc         1 3YE       0.034700
     54 H26         -0.0580     0.3720     0.4900 hc         1 3YE       0.038700
     55 H27         -0.3560    -1.3240     0.1080 hc         1 3YE       0.038700
@<TRIPOS>BOND
     1     1     2 2   
     2     1     9 1   
     3     2     3 1   
     4     2    11 1   
     5     3     4 1   
     6     3    31 1   
     7     4     8 1   
     8     4    10 2   
     9     5     6 1   
    10     5     9 1   
    11     5    32 1   
    12     6     7 2   
    13     6    27 1   
    14     7     8 1   
    15     7    33 1   
    16     8     9 2   
    17    11    34 1   
    18    11    35 1   
    19    12    13 1   
    20    12    15 1   
    21    12    36 1   
    22    12    37 1   
    23    13    14 1   
    24    13    38 1   
    25    13    39 1   
    26    14    30 1   
    27    14    40 1   
    28    14    41 1   
    29    15    16 2   
    30    15    17 1   
    31    17    18 1   
    32    17    42 1   
    33    18    19 1   
    34    18    24 1   
    35    18    43 1   
    36    19    20 1   
    37    19    44 1   
    38    19    45 1   
    39    20    21 1   
    40    20    46 1   
    41    20    47 1   
    42    21    22 1   
    43    21    23 1   
    44    24    25 1   
    45    24    26 1   
    46    27    28 1   
    47    27    48 1   
    48    27    49 1   
    49    28    29 1   
    50    28    50 1   
    51    28    51 1   
    52    29    30 1   
    53    29    52 1   
    54    29    53 1   
    55    30    54 1   
    56    30    55 1   
@<TRIPOS>SUBSTRUCTURE
     1 3YE         1 TEMP              0 ****  ****    0 ROOT
