@<TRIPOS>MOLECULE
3YE
   55    56     1     0     0
SMALL
abcg2


@<TRIPOS>ATOM
      1 N1          -8.0540    -1.0930    -0.6100 nc         1 3YE      -0.704100
      2 C2          -9.1000    -0.5550    -1.1740 cd         1 3YE       0.712800
      3 N3          -9.3290     0.7900    -1.1880 ns         1 3YE      -0.455400
      4 C4          -8.5040     1.7630    -0.6130 c          1 3YE       0.622600
      5 N5          -6.0740    -0.5120     0.5980 na         1 3YE      -0.104000
      6 C6          -5.4640     0.6360     1.0690 cc         1 3YE      -0.154300
      7 C7          -6.2370     1.7030     0.7130 cd         1 3YE      -0.097000
      8 C8          -7.3600     1.1850     0.0000 cd         1 3YE      -0.299600
      9 C9          -7.2190    -0.1990    -0.0460 cc         1 3YE       0.154400
     10 O10         -8.8130     2.9460    -0.6800 o          1 3YE      -0.555000
     11 N11         -9.9940    -1.3290    -1.8240 nv         1 3YE      -1.038200
     12 C12          3.3280    -0.7790     1.2960 c3         1 3YE      -0.160400
     13 C13          1.9920    -0.7140     0.5640 c3         1 3YE      -0.067400
     14 C14          0.8390    -0.3180     1.4760 c3         1 3YE      -0.075400
     15 C17          4.4500    -1.2510     0.3960 c          1 3YE       0.596100
     16 O18          4.3330    -2.2580    -0.2960 o          1 3YE      -0.654100
     17 N19          5.5480    -0.4870     0.3870 ns         1 3YE      -0.429900
     18 C20          6.7650    -0.8620    -0.2970 c3         1 3YE      -0.044300
     19 C21          7.6640     0.3660    -0.4540 c3         1 3YE      -0.056400
     20 C22          7.0220     1.4800    -1.2660 c3         1 3YE      -0.201400
     21 C23          7.8900     2.7300    -1.4960 c          1 3YE       0.712000
     22 O24          9.0550     2.7240    -1.0520 o          1 3YE      -0.761500
     23 O25          7.3430     3.6630    -2.1220 o          1 3YE      -0.761500
     24 C26          7.5200    -2.0140     0.4140 c          1 3YE       0.719000
     25 O27          8.4620    -2.5060    -0.2400 o          1 3YE      -0.745500
     26 O28          7.1510    -2.3360     1.5560 o          1 3YE      -0.745500
     27 C29         -4.1610     0.5790     1.7870 c3         1 3YE      -0.015100
     28 C30         -2.9850     0.2020     0.8820 c3         1 3YE      -0.077400
     29 C16         -1.6640     0.1330     1.6360 c3         1 3YE      -0.075400
     30 C15         -0.4900    -0.2340     0.7360 c3         1 3YE      -0.075400
     31 H1         -10.1620     1.1330    -1.6490 hn         1 3YE       0.315500
     32 H2          -5.7320    -1.4510     0.7290 hn         1 3YE       0.359000
     33 H3          -6.0190     2.7370     0.9320 ha         1 3YE       0.145000
     34 H4          -9.9390    -2.3190    -1.6510 hn         1 3YE       0.486500
     35 H5         -10.9210    -0.9770    -2.0000 hn         1 3YE       0.486500
     36 H6           3.5610     0.1940     1.7380 hc         1 3YE       0.043200
     37 H7           3.2550    -1.4870     2.1280 hc         1 3YE       0.043200
     38 H8           2.0650     0.0030    -0.2610 hc         1 3YE       0.049700
     39 H9           1.7790    -1.6850     0.1120 hc         1 3YE       0.049700
     40 H10          0.7570    -1.0440     2.2930 hc         1 3YE       0.030700
     41 H11          1.0560     0.6470     1.9470 hc         1 3YE       0.030700
     42 H12          5.6030     0.2670     1.0520 hn         1 3YE       0.293500
     43 H13          6.4940    -1.2110    -1.2980 h1         1 3YE       0.053700
     44 H14          7.9480     0.7360     0.5370 hc         1 3YE       0.049700
     45 H15          8.5880     0.0440    -0.9340 hc         1 3YE       0.049700
     46 H16          6.7240     1.0870    -2.2460 hc         1 3YE       0.009700
     47 H17          6.0860     1.8000    -0.7980 hc         1 3YE       0.009700
     48 H20         -3.9750     1.5560     2.2360 hc         1 3YE       0.051700
     49 H21         -4.2220    -0.1360     2.6150 hc         1 3YE       0.051700
     50 H22         -3.1800    -0.7650     0.4060 hc         1 3YE       0.043200
     51 H23         -2.9130     0.9330     0.0710 hc         1 3YE       0.043200
     52 H24         -1.4670     1.0980     2.1160 hc         1 3YE       0.034700
     53 H25         -1.7450    -0.6000     2.4450 hc         1 3YE       0.034700
     54 H26         -0.4090     0.5020    -0.0710 hc         1 3YE       0.038700
     55 H27         -0.6960    -1.1940     0.2510 hc         1 3YE       0.038700
@<TRIPOS>BOND
     1     1     2 2   
     2     1     9 1   
     3     2     3 1   
     4     2    11 1   
     5     3     4 1   
     6     3    31 1   
     7     4     8 1   
     8     4    10 2   
     9     5     6 1   
    10     5     9 1   
    11     5    32 1   
    12     6     7 2   
    13     6    27 1   
    14     7     8 1   
    15     7    33 1   
    16     8     9 2   
    17    11    34 1   
    18    11    35 1   
    19    12    13 1   
    20    12    15 1   
    21    12    36 1   
    22    12    37 1   
    23    13    14 1   
    24    13    38 1   
    25    13    39 1   
    26    14    30 1   
    27    14    40 1   
    28    14    41 1   
    29    15    16 2   
    30    15    17 1   
    31    17    18 1   
    32    17    42 1   
    33    18    19 1   
    34    18    24 1   
    35    18    43 1   
    36    19    20 1   
    37    19    44 1   
    38    19    45 1   
    39    20    21 1   
    40    20    46 1   
    41    20    47 1   
    42    21    22 1   
    43    21    23 1   
    44    24    25 1   
    45    24    26 1   
    46    27    28 1   
    47    27    48 1   
    48    27    49 1   
    49    28    29 1   
    50    28    50 1   
    51    28    51 1   
    52    29    30 1   
    53    29    52 1   
    54    29    53 1   
    55    30    54 1   
    56    30    55 1   
@<TRIPOS>SUBSTRUCTURE
     1 3YE         1 TEMP              0 ****  ****    0 ROOT
