@<TRIPOS>MOLECULE
3YF
   50    52     1     0     0
SMALL
No Charge or Current Charge


@<TRIPOS>ATOM
      1 N1           7.3560     0.3040     1.1510 nc         1 3YF      -0.705100
      2 C2           8.1730     1.1430     0.5580 cd         1 3YF       0.714800
      3 N3           8.1760     1.5070    -0.7390 ns         1 3YF      -0.455400
      4 C4           7.2880     1.0240    -1.6450 c          1 3YF       0.623600
      5 N5           5.4130    -1.1350     0.5660 na         1 3YF      -0.103000
      6 C6           4.6880    -1.4050    -0.6030 cc         1 3YF      -0.154300
      7 C7           5.2740    -0.6510    -1.5910 cd         1 3YF      -0.095000
      8 C8           6.3470     0.0790    -1.0300 cd         1 3YF      -0.299600
      9 C9           6.4240    -0.2260     0.2940 cc         1 3YF       0.155400
     10 O10          7.2940     1.3500    -2.8220 o          1 3YF      -0.556000
     11 N11          9.0880     1.6910     1.3400 nv         1 3YF      -1.044200
     12 C12         -0.9990    -1.1290    -0.3000 cc         1 3YF      -0.115000
     13 C13         -2.1130    -0.6890     0.3740 cd         1 3YF      -0.216600
     14 S14         -2.2650    -1.4930     1.9430 ss         1 3YF       0.240000
     15 C15         -0.7850    -2.4140     1.6180 cd         1 3YF      -0.279000
     16 C16         -0.2390    -2.1050     0.3970 cc         1 3YF      -0.124300
     17 O18         -2.9270     0.8620    -1.2500 o          1 3YF      -0.628100
     18 N19         -4.0970     0.6070     0.7020 ns         1 3YF      -0.418900
     19 C20         -5.2110     1.5470     0.4300 c3         1 3YF      -0.051300
     20 C21         -6.4840     0.8180    -0.0790 c3         1 3YF      -0.053400
     21 C22         -6.3070     0.0660    -1.4240 c3         1 3YF      -0.202400
     22 C23         -7.6560    -0.5180    -1.8850 c          1 3YF       0.713000
     23 O24         -8.3850     0.1820    -2.5720 o          1 3YF      -0.761500
     24 O25         -7.9630    -1.6370    -1.5030 o          1 3YF      -0.761500
     25 C26         -5.5170     2.3930     1.7030 c          1 3YF       0.716000
     26 O27         -5.5220     3.6110     1.6000 o          1 3YF      -0.741000
     27 O28         -5.6480     1.8120     2.7730 o          1 3YF      -0.741000
     28 C29          3.5180    -2.3480    -0.6900 c3         1 3YF      -0.015100
     29 C30          2.2250    -1.7480    -0.1000 c3         1 3YF      -0.078400
     30 C31          1.0130    -2.6990    -0.1930 c3         1 3YF       0.000900
     31 H1           8.8680     2.1480    -1.0860 hn         1 3YF       0.313500
     32 H2           5.2380    -1.5360     1.4790 hn         1 3YF       0.357000
     33 H3           4.9600    -0.6200    -2.6310 ha         1 3YF       0.145000
     34 H4           8.9180     1.5420     2.3270 hn         1 3YF       0.488000
     35 H5           9.4210     2.6140     1.0910 hn         1 3YF       0.488000
     36 H6          -0.7100    -0.7710    -1.2840 ha         1 3YF       0.146000
     37 H7          -0.4180    -3.1200     2.3520 h4         1 3YF       0.126000
     38 H8          -4.0950     0.1280     1.5930 hn         1 3YF       0.295500
     39 H9          -4.8880     2.2530    -0.3460 h1         1 3YF       0.058700
     40 H10         -6.8270     0.1120     0.6880 hc         1 3YF       0.050700
     41 H11         -7.2820     1.5620    -0.1960 hc         1 3YF       0.050700
     42 H12         -5.9490     0.8150    -2.1410 hc         1 3YF       0.011200
     43 H13         -5.5900    -0.7410    -1.2310 hc         1 3YF       0.011200
     44 H16          3.3430    -2.6200    -1.7380 hc         1 3YF       0.046700
     45 H17          3.7580    -3.2810    -0.1630 hc         1 3YF       0.046700
     46 H18          2.3940    -1.4860     0.9520 hc         1 3YF       0.055700
     47 H19          1.9920    -0.8140    -0.6260 hc         1 3YF       0.055700
     48 H20          1.2530    -3.6380     0.3220 hc         1 3YF       0.032200
     49 H21          0.8370    -2.9590    -1.2440 hc         1 3YF       0.032200
     50 C17         -3.0570     0.3220    -0.1580 c          1 3YF       0.623700
@<TRIPOS>BOND
     1     1     2 2   
     2     1     9 1   
     3     2     3 1   
     4     2    11 1   
     5     3     4 1   
     6     3    31 1   
     7     4     8 1   
     8     4    10 2   
     9     5     6 1   
    10     5     9 1   
    11     5    32 1   
    12     6     7 2   
    13     6    28 1   
    14     7     8 1   
    15     7    33 1   
    16     8     9 2   
    17    11    34 1   
    18    11    35 1   
    19    12    13 2   
    20    12    16 1   
    21    12    36 1   
    22    13    14 1   
    23    13    50 1   
    24    14    15 1   
    25    15    16 2   
    26    15    37 1   
    27    16    30 1   
    28    17    50 2   
    29    18    19 1   
    30    18    38 1   
    31    18    50 1   
    32    19    20 1   
    33    19    25 1   
    34    19    39 1   
    35    20    21 1   
    36    20    40 1   
    37    20    41 1   
    38    21    22 1   
    39    21    42 1   
    40    21    43 1   
    41    22    23 1   
    42    22    24 1   
    43    25    26 1   
    44    25    27 1   
    45    28    29 1   
    46    28    44 1   
    47    28    45 1   
    48    29    30 1   
    49    29    46 1   
    50    29    47 1   
    51    30    48 1   
    52    30    49 1   
@<TRIPOS>SUBSTRUCTURE
     1 3YF         1 TEMP              0 ****  ****    0 ROOT
