@<TRIPOS>MOLECULE
3YF
   50    52     1     0     0
SMALL
bcc


@<TRIPOS>ATOM
      1 N1           6.8400     0.1370     1.6400 nc         1 3YF      -0.705100
      2 C2           7.7050     1.1020     1.4830 cd         1 3YF       0.714800
      3 N3           7.9130     1.7290     0.2880 ns         1 3YF      -0.522400
      4 C4           7.2540     1.4350    -0.9110 c          1 3YF       0.766100
      5 N5           5.2350    -1.1520     0.4230 na         1 3YF      -0.154100
      6 C6           4.7580    -1.2290    -0.8730 cc         1 3YF      -0.103600
      7 C7           5.4070    -0.2910    -1.6220 cd         1 3YF      -0.113000
      8 C8           6.3140     0.3820    -0.7490 cd         1 3YF      -0.299600
      9 C9           6.1750    -0.1880     0.5140 cc         1 3YF       0.206100
     10 O10          7.5210     2.0640    -1.9260 o          1 3YF      -0.631500
     11 N11          8.4760     1.4930     2.5170 nv         1 3YF      -0.933800
     12 C12         -0.8190    -1.1730    -1.1130 cc         1 3YF      -0.133000
     13 C13         -2.0370    -0.9800    -0.5280 cd         1 3YF      -0.071700
     14 S14         -2.3880    -2.2520     0.5830 ss         1 3YF      -0.049800
     15 C15         -0.8900    -3.0150     0.2650 cd         1 3YF      -0.152100
     16 C16         -0.1460    -2.3410    -0.6590 cc         1 3YF      -0.124300
     17 O18         -2.7200     0.8850    -1.7760 o          1 3YF      -0.628100
     18 N19         -4.0090     0.2890    -0.0150 ns         1 3YF      -0.485900
     19 C20         -4.9010     1.4250    -0.0900 c3         1 3YF      -0.051300
     20 C21         -6.2410     1.0650     0.5520 c3         1 3YF      -0.053400
     21 C22         -6.9620    -0.0680    -0.1610 c3         1 3YF      -0.202400
     22 C23         -8.3210    -0.4740     0.4360 c          1 3YF       0.923600
     23 O24         -9.0210    -1.2340    -0.2660 o          1 3YF      -0.866800
     24 O25         -8.6150    -0.0380     1.5670 o          1 3YF      -0.866800
     25 C26         -4.2900     2.6980     0.5530 c          1 3YF       0.926600
     26 O27         -4.9440     3.7450     0.3690 o          1 3YF      -0.846300
     27 O28         -3.2340     2.5720     1.1960 o          1 3YF      -0.846300
     28 C29          3.6780    -2.1830    -1.2450 c3         1 3YF      -0.015100
     29 C30          2.3040    -1.7720    -0.7100 c3         1 3YF      -0.078400
     30 C31          1.2130    -2.7560    -1.1310 c3         1 3YF       0.000900
     31 H1           8.6060     2.4650     0.2430 hn         1 3YF       0.313500
     32 H2           4.9440    -1.7410     1.1880 hn         1 3YF       0.306700
     33 H3           5.2470    -0.1030    -2.6720 ha         1 3YF       0.163000
     34 H4           8.2060     1.1670     3.4290 hn         1 3YF       0.432800
     35 H5           8.9240     2.3940     2.4960 hn         1 3YF       0.432800
     36 H6          -0.4080    -0.4950    -1.8490 ha         1 3YF       0.164000
     37 H7          -0.6350    -3.9350     0.7710 h4         1 3YF       0.144000
     38 H8          -4.0160    -0.2140     0.8590 hn         1 3YF       0.295500
     39 H9          -5.0760     1.6380    -1.1490 h1         1 3YF       0.058700
     40 H10         -6.0830     0.8090     1.6050 hc         1 3YF       0.050700
     41 H11         -6.8620     1.9610     0.5480 hc         1 3YF       0.050700
     42 H12         -7.1100     0.1970    -1.2140 hc         1 3YF       0.011200
     43 H13         -6.3280    -0.9620    -0.1810 hc         1 3YF       0.011200
     44 H16          3.6380    -2.2450    -2.3340 hc         1 3YF       0.046700
     45 H17          3.9220    -3.1880    -0.8860 hc         1 3YF       0.046700
     46 H18          2.3280    -1.7070     0.3820 hc         1 3YF       0.055700
     47 H19          2.0650    -0.7700    -1.0760 hc         1 3YF       0.055700
     48 H20          1.4470    -3.7520    -0.7450 hc         1 3YF       0.032200
     49 H21          1.2080    -2.8400    -2.2220 hc         1 3YF       0.032200
     50 C17         -2.9460     0.1540    -0.8190 c          1 3YF       0.690700
@<TRIPOS>BOND
     1     1     2 2   
     2     1     9 1   
     3     2     3 1   
     4     2    11 1   
     5     3     4 1   
     6     3    31 1   
     7     4     8 1   
     8     4    10 2   
     9     5     6 1   
    10     5     9 1   
    11     5    32 1   
    12     6     7 2   
    13     6    28 1   
    14     7     8 1   
    15     7    33 1   
    16     8     9 2   
    17    11    34 1   
    18    11    35 1   
    19    12    13 2   
    20    12    16 1   
    21    12    36 1   
    22    13    14 1   
    23    13    50 1   
    24    14    15 1   
    25    15    16 2   
    26    15    37 1   
    27    16    30 1   
    28    17    50 2   
    29    18    19 1   
    30    18    38 1   
    31    18    50 1   
    32    19    20 1   
    33    19    25 1   
    34    19    39 1   
    35    20    21 1   
    36    20    40 1   
    37    20    41 1   
    38    21    22 1   
    39    21    42 1   
    40    21    43 1   
    41    22    23 1   
    42    22    24 1   
    43    25    26 1   
    44    25    27 1   
    45    28    29 1   
    46    28    44 1   
    47    28    45 1   
    48    29    30 1   
    49    29    46 1   
    50    29    47 1   
    51    30    48 1   
    52    30    49 1   
@<TRIPOS>SUBSTRUCTURE
     1 3YF         1 TEMP              0 ****  ****    0 ROOT
