@<TRIPOS>MOLECULE
3YG
   50    52     1     0     0
SMALL
abcg2


@<TRIPOS>ATOM
      1 N1           7.0190    -0.4500     1.8180 nc         1 3YG      -0.704100
      2 C2           8.0620     0.3290     1.9180 cd         1 3YG       0.712800
      3 N3           8.4710     1.1570     0.9130 ns         1 3YG      -0.455400
      4 C4           7.8510     1.2940    -0.3340 c          1 3YG       0.623600
      5 C6           4.8930    -0.7430    -0.9940 cc         1 3YG      -0.151300
      6 C8           6.7110     0.4530    -0.4480 cd         1 3YG      -0.300600
      7 N5           5.2850    -1.0660     0.2930 na         1 3YG      -0.104000
      8 C7           5.7560     0.1970    -1.4780 cd         1 3YG      -0.097000
      9 C9           6.3810    -0.3560     0.6350 cc         1 3YG       0.154400
     10 O10          8.3070     2.0710    -1.1620 o          1 3YG      -0.557000
     11 N11          8.7660     0.3760     3.0660 nv         1 3YG      -1.040200
     12 C12         -1.2180    -0.8220    -1.6360 cc         1 3YG      -0.063000
     13 C13         -2.3290    -0.6260    -0.7630 cc         1 3YG      -0.128600
     14 C14         -2.0510    -1.0190     0.5150 cd         1 3YG      -0.196000
     15 S15         -0.4570    -1.6150     0.6580 ss         1 3YG       0.099000
     16 C16         -0.1260    -1.3470    -1.0180 cd         1 3YG      -0.246300
     17 O18         -3.8750    -0.1100    -2.4620 o          1 3YG      -0.639100
     18 N19         -4.5060     0.2990    -0.3330 ns         1 3YG      -0.416900
     19 C20         -5.7770     0.8930    -0.6780 c3         1 3YG      -0.049300
     20 C21         -6.7180     0.8430     0.5260 c3         1 3YG      -0.056400
     21 C22         -7.0140    -0.5680     1.0100 c3         1 3YG      -0.201400
     22 C23         -8.0270    -0.6750     2.1640 c          1 3YG       0.712000
     23 O24         -8.3420    -1.8340     2.5070 o          1 3YG      -0.760500
     24 O25         -8.4480     0.3830     2.6720 o          1 3YG      -0.760500
     25 C26         -5.6360     2.3460    -1.2010 c          1 3YG       0.718000
     26 O27         -6.6630     2.8150    -1.7330 o          1 3YG      -0.741500
     27 O28         -4.5480     2.9210    -1.0320 o          1 3YG      -0.741500
     28 C29          3.7010    -1.3780    -1.6180 c3         1 3YG      -0.016100
     29 C30          2.3780    -0.9700    -0.9680 c3         1 3YG      -0.078400
     30 C31          1.1980    -1.7000    -1.6090 c3         1 3YG       0.009900
     31 H1           9.2870     1.7350     1.0660 hn         1 3YG       0.313500
     32 H2           4.8380    -1.7470     0.8860 hn         1 3YG       0.359000
     33 H3           5.7100     0.6500    -2.4560 ha         1 3YG       0.145000
     34 H4           8.5830    -0.3520     3.7360 hn         1 3YG       0.487000
     35 H5           9.7090     0.7280     3.0590 hn         1 3YG       0.487000
     36 H6          -1.2360    -0.5800    -2.6900 ha         1 3YG       0.148000
     37 H7          -2.6990    -1.0170     1.3790 h4         1 3YG       0.164000
     38 H8          -4.1660     0.4610     0.6020 hn         1 3YG       0.297500
     39 H9          -6.2190     0.2910    -1.4770 h1         1 3YG       0.056700
     40 H10         -6.3010     1.4410     1.3430 hc         1 3YG       0.050700
     41 H11         -7.6460     1.3350     0.2340 hc         1 3YG       0.050700
     42 H12         -7.3770    -1.1740     0.1710 hc         1 3YG       0.008700
     43 H13         -6.0910    -1.0610     1.3330 hc         1 3YG       0.008700
     44 H16          3.6850    -1.1120    -2.6770 hc         1 3YG       0.050200
     45 H17          3.7970    -2.4690    -1.5770 hc         1 3YG       0.050200
     46 H18          2.4080    -1.1900     0.1030 hc         1 3YG       0.052200
     47 H19          2.2410     0.1100    -1.0600 hc         1 3YG       0.052200
     48 H20          1.3610    -2.7800    -1.5300 hc         1 3YG       0.039700
     49 H21          1.1610    -1.4730    -2.6770 hc         1 3YG       0.039700
     50 C17         -3.6310    -0.1090    -1.2600 c          1 3YG       0.613700
@<TRIPOS>BOND
     1     1     2 2   
     2     1     9 1   
     3     2     3 1   
     4     2    11 1   
     5     3     4 1   
     6     3    31 1   
     7     4     6 1   
     8     4    10 2   
     9     5     7 1   
    10     5     8 2   
    11     5    28 1   
    12     6     8 1   
    13     6     9 2   
    14     7     9 1   
    15     7    32 1   
    16     8    33 1   
    17    11    34 1   
    18    11    35 1   
    19    12    13 1   
    20    12    16 2   
    21    12    36 1   
    22    13    14 2   
    23    13    50 1   
    24    14    15 1   
    25    14    37 1   
    26    15    16 1   
    27    16    30 1   
    28    17    50 2   
    29    18    19 1   
    30    18    38 1   
    31    18    50 1   
    32    19    20 1   
    33    19    25 1   
    34    19    39 1   
    35    20    21 1   
    36    20    40 1   
    37    20    41 1   
    38    21    22 1   
    39    21    42 1   
    40    21    43 1   
    41    22    23 1   
    42    22    24 1   
    43    25    26 1   
    44    25    27 1   
    45    28    29 1   
    46    28    44 1   
    47    28    45 1   
    48    29    30 1   
    49    29    46 1   
    50    29    47 1   
    51    30    48 1   
    52    30    49 1   
@<TRIPOS>SUBSTRUCTURE
     1 3YG         1 TEMP              0 ****  ****    0 ROOT
