@<TRIPOS>MOLECULE
3YG
   50    52     1     0     0
SMALL
No Charge or Current Charge


@<TRIPOS>ATOM
      1 N1           7.4320     0.2970     1.3620 nc         1 3YG      -0.704100
      2 C2           8.3450     1.0570     0.8040 cd         1 3YG       0.712800
      3 N3           8.4580     1.3790    -0.5000 ns         1 3YG      -0.455400
      4 C4           7.5940     0.9380    -1.4490 c          1 3YG       0.623600
      5 C6           4.7630    -1.2680    -0.5200 cc         1 3YG      -0.151300
      6 C8           6.5500     0.0800    -0.8730 cd         1 3YG      -0.300600
      7 N5           5.4300    -1.0150     0.6880 na         1 3YG      -0.104000
      8 C7           5.4640    -0.5870    -1.4850 cd         1 3YG      -0.097000
      9 C9           6.5200    -0.1890     0.4600 cc         1 3YG       0.154400
     10 O10          7.6940     1.2340    -2.6290 o          1 3YG      -0.557000
     11 N11          9.2570     1.5470     1.6280 nv         1 3YG      -1.040200
     12 C12         -1.2150    -0.9570    -0.6100 cc         1 3YG      -0.063000
     13 C13         -2.2700    -0.3670     0.1390 cc         1 3YG      -0.128600
     14 C14         -2.1090    -0.5300     1.5010 cd         1 3YG      -0.196000
     15 S15         -0.6290    -1.4300     1.8790 ss         1 3YG       0.099000
     16 C16         -0.2540    -1.5640     0.1540 cd         1 3YG      -0.246300
     17 O18         -3.5200     0.4680    -1.7270 o          1 3YG      -0.639100
     18 N19         -4.3330     0.8540     0.3740 ns         1 3YG      -0.416900
     19 C20         -5.5800     1.5700     0.0100 c3         1 3YG      -0.049300
     20 C21         -6.8210     0.6370     0.0290 c3         1 3YG      -0.056400
     21 C22         -6.7700    -0.5330    -0.9890 c3         1 3YG      -0.201400
     22 C23         -8.0950    -1.3190    -0.9600 c          1 3YG       0.712000
     23 O24         -9.0020    -0.9500    -1.6920 o          1 3YG      -0.760500
     24 O25         -8.2020    -2.2450    -0.1710 o          1 3YG      -0.760500
     25 C26         -5.7830     2.7970     0.9510 c          1 3YG       0.718000
     26 O27         -5.9320     3.8980     0.4400 o          1 3YG      -0.741500
     27 O28         -5.6950     2.6280     2.1600 o          1 3YG      -0.741500
     28 C29          3.5340    -2.1260    -0.6590 c3         1 3YG      -0.016100
     29 C30          2.2540    -1.4160    -0.1720 c3         1 3YG      -0.078400
     30 C31          0.9840    -2.2800    -0.3190 c3         1 3YG       0.009900
     31 H1           9.1940     1.9900    -0.8100 hn         1 3YG       0.313500
     32 H2           5.1680    -1.3750     1.5960 hn         1 3YG       0.359000
     33 H3           5.2200    -0.5640    -2.5440 ha         1 3YG       0.145000
     34 H4           9.2460     1.1190     2.5450 hn         1 3YG       0.487000
     35 H5          10.1750     1.7370     1.2470 hn         1 3YG       0.487000
     36 H6          -1.1880    -0.9200    -1.6960 ha         1 3YG       0.148000
     37 H7          -2.7450    -0.1940     2.3110 h4         1 3YG       0.164000
     38 H8          -4.1360     0.7220     1.3570 hn         1 3YG       0.297500
     39 H9          -5.4670     1.9680    -1.0060 h1         1 3YG       0.056700
     40 H10         -6.9530     0.2300     1.0400 hc         1 3YG       0.050700
     41 H11         -7.7110     1.2440    -0.1790 hc         1 3YG       0.050700
     42 H12         -6.6210    -0.0670    -1.9720 hc         1 3YG       0.008700
     43 H13         -5.9390    -1.1760    -0.6740 hc         1 3YG       0.008700
     44 H16          3.4070    -2.4170    -1.7090 hc         1 3YG       0.050200
     45 H17          3.6700    -3.0570    -0.0940 hc         1 3YG       0.050200
     46 H18          2.3760    -1.1330     0.8800 hc         1 3YG       0.052200
     47 H19          2.1220    -0.4860    -0.7390 hc         1 3YG       0.052200
     48 H20          1.1130    -3.2110     0.2480 hc         1 3YG       0.039700
     49 H21          0.8670    -2.5720    -1.3710 hc         1 3YG       0.039700
     50 C17         -3.4080     0.3400    -0.5130 c          1 3YG       0.613700
@<TRIPOS>BOND
     1     1     2 2   
     2     1     9 1   
     3     2     3 1   
     4     2    11 1   
     5     3     4 1   
     6     3    31 1   
     7     4     6 1   
     8     4    10 2   
     9     5     7 1   
    10     5     8 2   
    11     5    28 1   
    12     6     8 1   
    13     6     9 2   
    14     7     9 1   
    15     7    32 1   
    16     8    33 1   
    17    11    34 1   
    18    11    35 1   
    19    12    13 1   
    20    12    16 2   
    21    12    36 1   
    22    13    14 2   
    23    13    50 1   
    24    14    15 1   
    25    14    37 1   
    26    15    16 1   
    27    16    30 1   
    28    17    50 2   
    29    18    19 1   
    30    18    38 1   
    31    18    50 1   
    32    19    20 1   
    33    19    25 1   
    34    19    39 1   
    35    20    21 1   
    36    20    40 1   
    37    20    41 1   
    38    21    22 1   
    39    21    42 1   
    40    21    43 1   
    41    22    23 1   
    42    22    24 1   
    43    25    26 1   
    44    25    27 1   
    45    28    29 1   
    46    28    44 1   
    47    28    45 1   
    48    29    30 1   
    49    29    46 1   
    50    29    47 1   
    51    30    48 1   
    52    30    49 1   
@<TRIPOS>SUBSTRUCTURE
     1 3YG         1 TEMP              0 ****  ****    0 ROOT
