@<TRIPOS>MOLECULE
3YH
   52    55     1     0     0
SMALL
abcg2


@<TRIPOS>ATOM
      1 N1          -8.6780    -1.0580     0.8280 n2         1 3YH      -0.841100
      2 C2          -7.7140    -1.8820     0.6740 ce         1 3YH       0.661800
      3 N3          -7.8350    -3.1780     1.0760 nv         1 3YH      -1.033200
      4 C4          -6.4170    -1.5510     0.0170 ca         1 3YH      -0.201900
      5 C5          -5.7510    -2.4770    -0.7820 ca         1 3YH      -0.065000
      6 C6          -4.5590    -2.1340    -1.4030 ca         1 3YH      -0.118000
      7 C7          -4.0090    -0.8770    -1.2180 ca         1 3YH      -0.054000
      8 C8          -4.6620     0.0540    -0.4140 ca         1 3YH      -0.143500
      9 C9          -5.8670    -0.2840     0.1900 ca         1 3YH      -0.055000
     10 C10         -4.1080     1.4000    -0.2250 cc         1 3YH       0.373500
     11 C11         -2.7640     1.8020     0.0430 cc         1 3YH      -0.291600
     12 C12         -1.6040     0.9400     0.3450 c          1 3YH       0.656700
     13 O13         -1.7500    -0.1510     0.8620 o          1 3YH      -0.558100
     14 N14         -0.4080     1.4880     0.0150 ns         1 3YH      -0.145000
     15 C15          0.8780     1.0180     0.2910 ca         1 3YH      -0.005000
     16 C16          1.9330     1.8960     0.0310 ca         1 3YH      -0.154000
     17 C17          3.2430     1.5240     0.2650 ca         1 3YH      -0.056500
     18 C18          3.5390     0.2610     0.7740 cp         1 3YH      -0.135000
     19 C19          2.4830    -0.6050     1.0410 ca         1 3YH      -0.056500
     20 C20          1.1650    -0.2490     0.7990 ca         1 3YH      -0.154000
     21 C21          4.9280    -0.1460     1.0970 cp         1 3YH       0.053000
     22 C22          5.2810    -0.2670     2.4390 ca         1 3YH      -0.119000
     23 C23          6.5590    -0.6480     2.8190 ca         1 3YH      -0.059000
     24 C24          7.5160    -0.9250     1.8550 ca         1 3YH      -0.126000
     25 C25          7.1850    -0.8330     0.5120 ca         1 3YH      -0.017000
     26 C26          5.9030    -0.4470     0.1400 ca         1 3YH      -0.291500
     27 S27          5.5520    -0.3790    -1.6090 sy         1 3YH       1.144600
     28 O28          5.2000     0.9840    -1.9680 o          1 3YH      -0.534500
     29 O29          6.6600    -1.0270    -2.2920 o          1 3YH      -0.534500
     30 N30          4.2270    -1.3000    -1.9020 n8         1 3YH      -1.002100
     31 N39         -4.8860     2.4390    -0.3170 nd         1 3YH      -0.351300
     32 O40         -4.1070     3.5320    -0.0970 os         1 3YH      -0.049700
     33 C41         -2.8570     3.1540     0.1130 cd         1 3YH       0.207900
     34 HN1         -8.4700    -0.1720     0.3820 hn         1 3YH       0.392400
     35 HN3         -8.6440    -3.3940     1.6370 hn         1 3YH       0.469500
     36 HN3A        -7.0020    -3.6760     1.3430 hn         1 3YH       0.469500
     37 H5          -6.1690    -3.4630    -0.9390 ha         1 3YH       0.127000
     38 H6          -4.0570    -2.8510    -2.0390 ha         1 3YH       0.121000
     39 H7          -3.0830    -0.6190    -1.7140 ha         1 3YH       0.120000
     40 H9          -6.3610     0.4350     0.8310 ha         1 3YH       0.130000
     41 HN14        -0.4360     2.3720    -0.4710 hn         1 3YH       0.155000
     42 H16          1.7240     2.8880    -0.3530 ha         1 3YH       0.135500
     43 H17          4.0340     2.2330     0.0700 ha         1 3YH       0.132500
     44 H19          2.6910    -1.5920     1.4360 ha         1 3YH       0.132500
     45 H20          0.3830    -0.9600     1.0060 ha         1 3YH       0.135500
     46 H22          4.5370    -0.0490     3.1940 ha         1 3YH       0.122000
     47 H23          6.8050    -0.7280     3.8700 ha         1 3YH       0.119000
     48 H24          8.5150    -1.2230     2.1420 ha         1 3YH       0.122000
     49 H25          7.9280    -1.0690    -0.2370 ha         1 3YH       0.146000
     50 HN30         4.3430    -2.2800    -1.6700 hn         1 3YH       0.481500
     51 HN3B         3.3620    -0.9270    -1.5300 hn         1 3YH       0.481500
     52 H41         -2.1400     3.9330     0.3270 h4         1 3YH       0.063100
@<TRIPOS>BOND
     1     1     2 2   
     2     1    34 1   
     3     2     3 1   
     4     2     4 1   
     5     3    35 1   
     6     3    36 1   
     7     4     5 ar  
     8     4     9 ar  
     9     5     6 ar  
    10     5    37 1   
    11     6     7 ar  
    12     6    38 1   
    13     7     8 ar  
    14     7    39 1   
    15     8     9 ar  
    16     8    10 1   
    17     9    40 1   
    18    10    11 1   
    19    10    31 2   
    20    11    12 1   
    21    11    33 2   
    22    12    13 2   
    23    12    14 1   
    24    14    15 1   
    25    14    41 1   
    26    15    16 ar  
    27    15    20 ar  
    28    16    17 ar  
    29    16    42 1   
    30    17    18 ar  
    31    17    43 1   
    32    18    19 ar  
    33    18    21 1   
    34    19    20 ar  
    35    19    44 1   
    36    20    45 1   
    37    21    22 ar  
    38    21    26 ar  
    39    22    23 ar  
    40    22    46 1   
    41    23    24 ar  
    42    23    47 1   
    43    24    25 ar  
    44    24    48 1   
    45    25    26 ar  
    46    25    49 1   
    47    26    27 1   
    48    27    28 2   
    49    27    29 2   
    50    27    30 1   
    51    30    50 1   
    52    30    51 1   
    53    31    32 1   
    54    32    33 1   
    55    33    52 1   
@<TRIPOS>SUBSTRUCTURE
     1 3YH         1 TEMP              0 ****  ****    0 ROOT
