@<TRIPOS>MOLECULE
3YH
   52    55     1     0     0
SMALL
No Charge or Current Charge


@<TRIPOS>ATOM
      1 N1          -8.9880    -0.7850     0.4690 n2         1 3YH      -0.841100
      2 C2          -8.1620    -1.7390     0.3530 ce         1 3YH       0.661800
      3 N3          -8.5450    -2.9620     0.7580 nv         1 3YH      -1.033200
      4 C4          -6.7330    -1.5520    -0.0410 ca         1 3YH      -0.201900
      5 C5          -6.0250    -2.5880    -0.6880 ca         1 3YH      -0.065000
      6 C6          -4.7060    -2.3850    -1.1170 ca         1 3YH      -0.118000
      7 C7          -4.0700    -1.1530    -0.8990 ca         1 3YH      -0.054000
      8 C8          -4.7350    -0.1060    -0.2250 ca         1 3YH      -0.143500
      9 C9          -6.0860    -0.3080     0.1500 ca         1 3YH      -0.055000
     10 C10         -4.1180     1.2240    -0.0460 cc         1 3YH       0.373500
     11 C11         -2.7410     1.5530     0.0680 cc         1 3YH      -0.291600
     12 C12         -1.5790     0.6800     0.3340 c          1 3YH       0.656700
     13 O13         -1.6720    -0.5050     0.6200 o          1 3YH      -0.558100
     14 N14         -0.3650     1.3560     0.2660 ns         1 3YH      -0.145000
     15 C15          0.9810     0.9420     0.4720 ca         1 3YH      -0.005000
     16 C16          1.9920     1.8990     0.2690 ca         1 3YH      -0.154000
     17 C17          3.3440     1.5680     0.4550 ca         1 3YH      -0.056500
     18 C18          3.7240     0.2610     0.8330 cp         1 3YH      -0.135000
     19 C19          2.7030    -0.6890     1.0670 ca         1 3YH      -0.056500
     20 C20          1.3500    -0.3590     0.8810 ca         1 3YH      -0.154000
     21 C21          5.1530    -0.0960     1.0670 cp         1 3YH       0.053000
     22 C22          5.5870    -0.2100     2.4090 ca         1 3YH      -0.119000
     23 C23          6.9070    -0.5680     2.7300 ca         1 3YH      -0.059000
     24 C24          7.8310    -0.8290     1.7060 ca         1 3YH      -0.126000
     25 C25          7.4360    -0.7350     0.3630 ca         1 3YH      -0.017000
     26 C26          6.1120    -0.3700     0.0420 ca         1 3YH      -0.291500
     27 S27          5.5960    -0.2620    -1.6870 sy         1 3YH       1.144600
     28 O28          5.0190     1.0490    -1.9650 o          1 3YH      -0.534500
     29 O29          6.6190    -0.8580    -2.5470 o          1 3YH      -0.534500
     30 N30          4.3140    -1.2740    -1.7680 n8         1 3YH      -1.002100
     31 N39         -4.8800     2.3070    -0.1460 nd         1 3YH      -0.351300
     32 O40         -3.9630     3.4090    -0.1120 os         1 3YH      -0.049700
     33 C41         -2.6990     2.9100     0.0050 cd         1 3YH       0.207900
     34 HN1         -8.5590     0.0520     0.0540 hn         1 3YH       0.392400
     35 HN3         -9.3920    -2.9560     1.3130 hn         1 3YH       0.469500
     36 HN3A        -7.8020    -3.5630     1.0920 hn         1 3YH       0.469500
     37 H5          -6.5030    -3.5450    -0.8890 ha         1 3YH       0.127000
     38 H6          -4.1800    -3.1790    -1.6430 ha         1 3YH       0.121000
     39 H7          -3.0750    -1.0100    -1.3090 ha         1 3YH       0.120000
     40 H9          -6.6250     0.5030     0.6380 ha         1 3YH       0.130000
     41 HN14        -0.4500     2.3310     0.0150 hn         1 3YH       0.155000
     42 H16          1.7310     2.9120    -0.0330 ha         1 3YH       0.135500
     43 H17          4.1080     2.3280     0.3020 ha         1 3YH       0.132500
     44 H19          2.9680    -1.6920     1.3970 ha         1 3YH       0.132500
     45 H20          0.6080    -1.1270     1.0700 ha         1 3YH       0.135500
     46 H22          4.8810    -0.0160     3.2130 ha         1 3YH       0.122000
     47 H23          7.2120    -0.6450     3.7710 ha         1 3YH       0.119000
     48 H24          8.8520    -1.1090     1.9540 ha         1 3YH       0.122000
     49 H25          8.1620    -0.9450    -0.4220 ha         1 3YH       0.146000
     50 HN30         3.8260    -1.0350    -0.9090 hn         1 3YH       0.481500
     51 HN3B         3.7580    -0.8190    -2.4880 hn         1 3YH       0.481500
     52 H41         -1.8850     3.6200     0.0820 h4         1 3YH       0.063100
@<TRIPOS>BOND
     1     1     2 2   
     2     1    34 1   
     3     2     3 1   
     4     2     4 1   
     5     3    35 1   
     6     3    36 1   
     7     4     5 ar  
     8     4     9 ar  
     9     5     6 ar  
    10     5    37 1   
    11     6     7 ar  
    12     6    38 1   
    13     7     8 ar  
    14     7    39 1   
    15     8     9 ar  
    16     8    10 1   
    17     9    40 1   
    18    10    11 1   
    19    10    31 2   
    20    11    12 1   
    21    11    33 2   
    22    12    13 2   
    23    12    14 1   
    24    14    15 1   
    25    14    41 1   
    26    15    16 ar  
    27    15    20 ar  
    28    16    17 ar  
    29    16    42 1   
    30    17    18 ar  
    31    17    43 1   
    32    18    19 ar  
    33    18    21 1   
    34    19    20 ar  
    35    19    44 1   
    36    20    45 1   
    37    21    22 ar  
    38    21    26 ar  
    39    22    23 ar  
    40    22    46 1   
    41    23    24 ar  
    42    23    47 1   
    43    24    25 ar  
    44    24    48 1   
    45    25    26 ar  
    46    25    49 1   
    47    26    27 1   
    48    27    28 2   
    49    27    29 2   
    50    27    30 1   
    51    30    50 1   
    52    30    51 1   
    53    31    32 1   
    54    32    33 1   
    55    33    52 1   
@<TRIPOS>SUBSTRUCTURE
     1 3YH         1 TEMP              0 ****  ****    0 ROOT
