@<TRIPOS>MOLECULE
3YI
   99   102     1     0     0
SMALL
No Charge or Current Charge


@<TRIPOS>ATOM
      1 C1          91.1320   103.1020    42.5580 ca         1 3YI       0.105100
      2 N1          92.0740   100.7830    42.7600 ns         1 3YI      -0.190000
      3 O1          90.1570   102.6350    41.7190 oh         1 3YI      -0.577100
      4 C2          92.0520   102.1750    43.1130 ca         1 3YI      -0.080000
      5 O2          89.3420   105.0250    41.3920 oh         1 3YI      -0.522100
      6 C3          93.0530   102.6470    43.9960 ca         1 3YI      -0.176600
      7 O3          91.7630   108.6250    43.3640 os         1 3YI      -0.335100
      8 C4          93.1520   104.0220    44.2880 ca         1 3YI       0.173100
      9 O4          94.4190   106.8840    45.1030 o          1 3YI      -0.525100
     10 C5          92.3880   106.4060    43.8490 ca         1 3YI      -0.344600
     11 O5          93.9120   109.6050    43.7500 os         1 3YI      -0.344100
     12 C6          91.5100   107.2800    43.2200 ca         1 3YI       0.246100
     13 O6          94.7680   107.8120    39.4090 os         1 3YI      -0.462000
     14 C7          90.4680   106.8260    42.4170 ca         1 3YI      -0.180300
     15 O7          97.6090   105.9850    40.7680 os         1 3YI      -0.462100
     16 C8          90.3400   105.4430    42.2180 ca         1 3YI       0.256100
     17 O8          98.5590   105.8110    38.6790 o          1 3YI      -0.499000
     18 C9          91.2390   104.5040    42.8230 ca         1 3YI      -0.121000
     19 O9          97.3600   103.2710    38.4860 oh         1 3YI      -0.653000
     20 C10         92.2790   104.9830    43.6810 ca         1 3YI       0.039000
     21 O10         95.8110   100.5590    38.9790 oh         1 3YI      -0.638000
     22 C11         93.3900   107.2550    44.5520 c          1 3YI       0.557700
     23 O11         89.9130   100.1590    42.4200 o          1 3YI      -0.567100
     24 C12         92.8750   108.7100    44.2870 c5         1 3YI       0.303000
     25 O12         94.1370   104.3720    45.1630 oh         1 3YI      -0.577100
     26 C13         92.3400   109.3350    45.5920 c3         1 3YI      -0.076100
     27 O13         94.4590   100.6700    44.1630 o          1 3YI      -0.511100
     28 C14         89.5190   107.8150    41.7270 c3         1 3YI      -0.022800
     29 C15         91.1050    99.8850    42.3460 c          1 3YI       0.604300
     30 C16         91.5790    98.5420    41.8170 ce         1 3YI      -0.165400
     31 C17         92.8490    98.1940    41.4100 cf         1 3YI      -0.143000
     32 C18         94.0760    98.9890    41.3080 cf         1 3YI      -0.231000
     33 C19         95.2620    98.4680    40.9130 c2         1 3YI      -0.172200
     34 C20         96.5980    99.2030    40.8250 c3         1 3YI      -0.076500
     35 C21         96.4560   100.6540    40.2540 c3         1 3YI       0.180300
     36 C22         97.7870   101.4900    40.1550 c3         1 3YI      -0.037700
     37 C23         97.6080   103.0290    39.8770 c3         1 3YI       0.186300
     38 C24         96.5360   103.7800    40.7420 c3         1 3YI      -0.111700
     39 C25         96.3940   105.3080    40.3740 c3         1 3YI       0.172300
     40 C26         95.2030   106.0610    41.0520 c3         1 3YI      -0.060700
     41 C27         95.2170   107.5950    40.7600 c3         1 3YI       0.212500
     42 C28         94.3070   108.3510    41.7100 c2         1 3YI      -0.234200
     43 C29         94.7270   109.0050    42.8090 c2         1 3YI      -0.065900
     44 C30         90.4720    97.4920    41.7310 c3         1 3YI      -0.048900
     45 C31         97.2850    99.1490    42.2110 c3         1 3YI      -0.083100
     46 C32         98.8490   100.8510    39.2150 c3         1 3YI      -0.087100
     47 C33         96.7630   103.5660    42.2700 c3         1 3YI      -0.087100
     48 C34         93.8370   105.4100    40.6900 c3         1 3YI      -0.089100
     49 C35         98.6070   106.1740    39.8470 c          1 3YI       0.593100
     50 C36         99.7980   106.8930    40.4580 c3         1 3YI      -0.156100
     51 C37         94.9490   109.1490    38.9070 c3         1 3YI       0.147900
     52 C38         94.0420   101.7080    44.6660 c          1 3YI       0.607500
     53 H1          92.9990   100.3740    42.8060 hn         1 3YI       0.158000
     54 H2          89.9920   101.6790    41.9490 ho         1 3YI       0.493000
     55 H3          89.4650   104.0410    41.3450 ho         1 3YI       0.511000
     56 H4          97.7590   104.1530    38.2950 ho         1 3YI       0.454000
     57 H5          95.1110    99.8810    39.0880 ho         1 3YI       0.428000
     58 H6          94.2480   105.3600    45.1530 ho         1 3YI       0.522000
     59 H7          93.1310   109.4030    46.3470 hc         1 3YI       0.069367
     60 H8          91.9560   110.3460    45.4130 hc         1 3YI       0.069367
     61 H9          91.5250   108.7340    46.0130 hc         1 3YI       0.069367
     62 H10         88.4720   107.5110    41.8440 hc         1 3YI       0.052033
     63 H11         89.5970   108.8300    42.1340 hc         1 3YI       0.052033
     64 H12         89.7320   107.8750    40.6530 hc         1 3YI       0.052033
     65 H13         92.9730    97.1620    41.0710 ha         1 3YI       0.179000
     66 H14         94.0460   100.0470    41.5490 ha         1 3YI       0.188000
     67 H15         95.3240    97.4070    40.6590 ha         1 3YI       0.174000
     68 H16         97.2350    98.6370    40.1340 hc         1 3YI       0.064700
     69 H17         95.7940   101.1860    40.9450 h1         1 3YI       0.026700
     70 H18         98.2460   101.4560    41.1480 hc         1 3YI       0.051700
     71 H19         98.5790   103.4770    40.1270 h1         1 3YI       0.019700
     72 H20         95.5770   103.3160    40.4910 hc         1 3YI       0.075700
     73 H21         96.2220   105.4040    39.2930 h1         1 3YI       0.076700
     74 H22         95.3250   105.9760    42.1370 hc         1 3YI       0.064700
     75 H23         96.2390   107.9790    40.8860 h1         1 3YI       0.054700
     76 H24         93.2580   108.3190    41.4270 ha         1 3YI       0.205000
     77 H26         95.7870   109.0650    43.0680 h4         1 3YI       0.195000
     78 H28         89.7490    97.7440    40.9460 hc         1 3YI       0.053367
     79 H29         90.8570    96.4900    41.5070 hc         1 3YI       0.053367
     80 H30         89.9210    97.4150    42.6760 hc         1 3YI       0.053367
     81 H31         97.2580    98.1280    42.6120 hc         1 3YI       0.044033
     82 H32         98.3390    99.4440    42.1490 hc         1 3YI       0.044033
     83 H33         96.7790    99.8080    42.9250 hc         1 3YI       0.044033
     84 H34         99.1380    99.8540    39.5640 hc         1 3YI       0.041033
     85 H35         98.4690   100.7580    38.1910 hc         1 3YI       0.041033
     86 H36         99.7570   101.4650    39.1880 hc         1 3YI       0.041033
     87 H37         95.9590   104.0120    42.8640 hc         1 3YI       0.042367
     88 H38         96.7790   102.5040    42.5370 hc         1 3YI       0.042367
     89 H39         97.7130   104.0080    42.5930 hc         1 3YI       0.042367
     90 H40         92.9980   106.0250    41.0270 hc         1 3YI       0.044700
     91 H41         93.7380   105.2820    39.6050 hc         1 3YI       0.044700
     92 H42         93.7290   104.4260    41.1610 hc         1 3YI       0.044700
     93 H43        100.6080   107.0520    39.7390 hc         1 3YI       0.072367
     94 H44         99.4520   107.8330    40.9010 hc         1 3YI       0.072367
     95 H45        100.1340   106.3320    41.3370 hc         1 3YI       0.072367
     96 H46         94.6120   109.2120    37.8640 h1         1 3YI       0.034033
     97 H47         94.3710   109.8750    39.4930 h1         1 3YI       0.034033
     98 H48         96.0070   109.4390    38.9400 h1         1 3YI       0.034033
     99 H49         94.4170   102.0140    45.6680 h4         1 3YI       0.028200
@<TRIPOS>BOND
     1     1     3 1   
     2     1     4 ar  
     3     1    18 ar  
     4     2     4 1   
     5     2    29 1   
     6     2    53 1   
     7     3    54 1   
     8     4     6 ar  
     9     5    16 1   
    10     5    55 1   
    11     6     8 ar  
    12     6    52 1   
    13     7    12 1   
    14     7    24 1   
    15     8    20 ar  
    16     8    25 1   
    17     9    22 2   
    18    10    12 ar  
    19    10    20 ar  
    20    10    22 1   
    21    11    24 1   
    22    11    43 1   
    23    12    14 ar  
    24    13    41 1   
    25    13    51 1   
    26    14    16 ar  
    27    14    28 1   
    28    15    39 1   
    29    15    49 1   
    30    16    18 ar  
    31    17    49 2   
    32    18    20 ar  
    33    19    37 1   
    34    19    56 1   
    35    21    35 1   
    36    21    57 1   
    37    22    24 1   
    38    23    29 2   
    39    24    26 1   
    40    25    58 1   
    41    26    59 1   
    42    26    60 1   
    43    26    61 1   
    44    27    52 2   
    45    28    62 1   
    46    28    63 1   
    47    28    64 1   
    48    29    30 1   
    49    30    31 2   
    50    30    44 1   
    51    31    32 1   
    52    31    65 1   
    53    32    33 2   
    54    32    66 1   
    55    33    34 1   
    56    33    67 1   
    57    34    35 1   
    58    34    45 1   
    59    34    68 1   
    60    35    36 1   
    61    35    69 1   
    62    36    37 1   
    63    36    46 1   
    64    36    70 1   
    65    37    38 1   
    66    37    71 1   
    67    38    39 1   
    68    38    47 1   
    69    38    72 1   
    70    39    40 1   
    71    39    73 1   
    72    40    41 1   
    73    40    48 1   
    74    40    74 1   
    75    41    42 1   
    76    41    75 1   
    77    42    43 2   
    78    42    76 1   
    79    43    77 1   
    80    44    78 1   
    81    44    79 1   
    82    44    80 1   
    83    45    81 1   
    84    45    82 1   
    85    45    83 1   
    86    46    84 1   
    87    46    85 1   
    88    46    86 1   
    89    47    87 1   
    90    47    88 1   
    91    47    89 1   
    92    48    90 1   
    93    48    91 1   
    94    48    92 1   
    95    49    50 1   
    96    50    93 1   
    97    50    94 1   
    98    50    95 1   
    99    51    96 1   
   100    51    97 1   
   101    51    98 1   
   102    52    99 1   
@<TRIPOS>SUBSTRUCTURE
     1 3YI         1 TEMP              0 ****  ****    0 ROOT
