@<TRIPOS>MOLECULE
3YI
   99   102     1     0     0
SMALL
abcg2


@<TRIPOS>ATOM
      1 C1          91.2930   103.0890    42.1650 ca         1 3YI       0.105100
      2 N1          92.0620   100.8360    42.4450 ns         1 3YI      -0.190000
      3 O1          90.6250   102.6880    41.0410 oh         1 3YI      -0.577100
      4 C2          92.0250   102.1760    42.8960 ca         1 3YI      -0.080000
      5 O2          89.8190   105.0910    40.6840 oh         1 3YI      -0.522100
      6 C3          92.7360   102.5880    44.0320 ca         1 3YI      -0.176600
      7 O3          91.5820   108.4700    43.4130 os         1 3YI      -0.335100
      8 C4          92.7320   103.9150    44.4290 ca         1 3YI       0.173100
      9 O4          93.5630   106.7600    45.7870 o          1 3YI      -0.525100
     10 C5          92.0850   106.2790    43.9220 ca         1 3YI      -0.344600
     11 O5          93.7080   109.1890    44.0650 os         1 3YI      -0.344100
     12 C6          91.3880   107.1710    43.1040 ca         1 3YI       0.246100
     13 O6          94.9720   107.9290    39.6190 os         1 3YI      -0.462000
     14 C7          90.6520   106.8070    41.9820 ca         1 3YI      -0.180300
     15 O7          97.6630   106.0070    40.6640 os         1 3YI      -0.462100
     16 C8          90.5550   105.4420    41.7440 ca         1 3YI       0.256100
     17 O8          98.1950   105.9980    38.4750 o          1 3YI      -0.499000
     18 C9          91.2530   104.4530    42.5400 ca         1 3YI      -0.121000
     19 O9          96.9600   103.2930    38.4070 oh         1 3YI      -0.653000
     20 C10         92.0130   104.8760    43.6740 ca         1 3YI       0.039000
     21 O10         95.3680   100.9670    39.1750 oh         1 3YI      -0.638000
     22 C11         92.8010   107.0720    44.8670 c          1 3YI       0.557700
     23 O11         91.1060    99.8590    44.2570 o          1 3YI      -0.567100
     24 C12         92.5390   108.5520    44.4990 c5         1 3YI       0.303000
     25 O12         93.4700   104.2260    45.5180 oh         1 3YI      -0.577100
     26 C13         91.9420   109.3570    45.6250 c3         1 3YI      -0.076100
     27 O13         94.7690   101.5300    44.6860 o          1 3YI      -0.511100
     28 C14         89.9370   107.8230    41.1440 c3         1 3YI      -0.022800
     29 C15         91.6430    99.7470    43.1600 c          1 3YI       0.604300
     30 C16         91.8920    98.4290    42.5090 ce         1 3YI      -0.165400
     31 C17         92.9920    98.1650    41.7760 cf         1 3YI      -0.143000
     32 C18         94.1980    98.9530    41.6300 cf         1 3YI      -0.231000
     33 C19         95.2190    98.5730    40.8510 c2         1 3YI      -0.172200
     34 C20         96.4950    99.3560    40.6660 c3         1 3YI      -0.076500
     35 C21         96.2450   100.8370    40.2950 c3         1 3YI       0.180300
     36 C22         97.5520   101.6310    40.0750 c3         1 3YI      -0.037700
     37 C23         97.3840   103.1290    39.7640 c3         1 3YI       0.186300
     38 C24         96.4740   103.8920    40.7570 c3         1 3YI      -0.111700
     39 C25         96.3760   105.3890    40.4210 c3         1 3YI       0.172300
     40 C26         95.3140   106.1500    41.2370 c3         1 3YI      -0.060700
     41 C27         95.3360   107.6640    40.9710 c3         1 3YI       0.212500
     42 C28         94.3760   108.4060    41.8870 c2         1 3YI      -0.234200
     43 C29         94.5540   108.4980    43.1950 c2         1 3YI      -0.065900
     44 C30         90.7490    97.4430    42.5920 c3         1 3YI      -0.048900
     45 C31         97.3970    99.1960    41.9000 c3         1 3YI      -0.083100
     46 C32         98.4750   101.0030    39.0180 c3         1 3YI      -0.087100
     47 C33         96.9360   103.6620    42.2010 c3         1 3YI      -0.087100
     48 C34         93.9420   105.5410    40.9780 c3         1 3YI      -0.089100
     49 C35         98.4790   106.2470    39.6290 c          1 3YI       0.593100
     50 C36         99.7540   106.8870    40.0810 c3         1 3YI      -0.156100
     51 C37         95.8840   108.7460    38.8980 c3         1 3YI       0.147900
     52 C38         93.5690   101.6020    44.8000 c          1 3YI       0.607500
     53 H1          92.4570   100.6630    41.5320 hn         1 3YI       0.158000
     54 H2          90.7400   101.7380    40.8850 ho         1 3YI       0.493000
     55 H3          89.8530   104.1230    40.5470 ho         1 3YI       0.511000
     56 H4          96.9550   104.2410    38.2200 ho         1 3YI       0.454000
     57 H5          94.6190   100.3710    39.3190 ho         1 3YI       0.428000
     58 H6          93.5130   105.2050    45.6930 ho         1 3YI       0.522000
     59 H7          92.6620   109.4200    46.4400 hc         1 3YI       0.069367
     60 H8          91.7240   110.3650    45.2730 hc         1 3YI       0.069367
     61 H9          91.0310   108.8800    45.9840 hc         1 3YI       0.069367
     62 H10         88.9410   108.0250    41.5490 hc         1 3YI       0.052033
     63 H11         90.4830   108.7660    41.1390 hc         1 3YI       0.052033
     64 H12         89.8160   107.4710    40.1220 hc         1 3YI       0.052033
     65 H13         93.0120    97.2110    41.2540 ha         1 3YI       0.179000
     66 H14         94.2850    99.8900    42.1660 ha         1 3YI       0.188000
     67 H15         95.1030    97.6810    40.2420 ha         1 3YI       0.174000
     68 H16         96.9960    98.8940    39.8120 hc         1 3YI       0.064700
     69 H17         95.7580   101.3030    41.1620 h1         1 3YI       0.026700
     70 H18         98.0830   101.5670    41.0220 hc         1 3YI       0.051700
     71 H19         98.4000   103.5440    39.8340 h1         1 3YI       0.019700
     72 H20         95.4880   103.4450    40.6220 hc         1 3YI       0.075700
     73 H21         96.1210   105.5100    39.3700 h1         1 3YI       0.076700
     74 H22         95.5990   106.0100    42.2820 hc         1 3YI       0.064700
     75 H23         96.3380   108.0470    41.1780 h1         1 3YI       0.054700
     76 H24         93.4810   108.8060    41.4250 ha         1 3YI       0.205000
     77 H26         95.4250   108.0930    43.7010 h4         1 3YI       0.195000
     78 H28         89.9630    97.8180    43.2450 hc         1 3YI       0.053367
     79 H29         90.3200    97.2740    41.6020 hc         1 3YI       0.053367
     80 H30         91.0790    96.4830    42.9920 hc         1 3YI       0.053367
     81 H31         97.4960    98.1360    42.1410 hc         1 3YI       0.044033
     82 H32         98.3870    99.6220    41.7570 hc         1 3YI       0.044033
     83 H33         96.9140    99.6500    42.7710 hc         1 3YI       0.044033
     84 H34         98.6570    99.9470    39.2050 hc         1 3YI       0.041033
     85 H35         98.0500   101.1080    38.0200 hc         1 3YI       0.041033
     86 H36         99.4300   101.5340    39.0020 hc         1 3YI       0.041033
     87 H37         96.2870   104.1810    42.9080 hc         1 3YI       0.042367
     88 H38         96.9230   102.6100    42.4630 hc         1 3YI       0.042367
     89 H39         97.9430   104.0540    42.3530 hc         1 3YI       0.042367
     90 H40         93.1700   106.1010    41.4940 hc         1 3YI       0.044700
     91 H41         93.7020   105.5830    39.9130 hc         1 3YI       0.044700
     92 H42         93.8890   104.5050    41.2990 hc         1 3YI       0.044700
     93 H43        100.3740   107.1390    39.2250 hc         1 3YI       0.072367
     94 H44         99.5260   107.7780    40.6690 hc         1 3YI       0.072367
     95 H45        100.2930   106.2010    40.7390 hc         1 3YI       0.072367
     96 H46         95.5400   108.7710    37.8650 h1         1 3YI       0.034033
     97 H47         95.8990   109.7670    39.2930 h1         1 3YI       0.034033
     98 H48         96.8950   108.3340    38.9190 h1         1 3YI       0.034033
     99 H49         93.0300   100.9300    45.4850 h4         1 3YI       0.028200
@<TRIPOS>BOND
     1     1     3 1   
     2     1     4 ar  
     3     1    18 ar  
     4     2     4 1   
     5     2    29 1   
     6     2    53 1   
     7     3    54 1   
     8     4     6 ar  
     9     5    16 1   
    10     5    55 1   
    11     6     8 ar  
    12     6    52 1   
    13     7    12 1   
    14     7    24 1   
    15     8    20 ar  
    16     8    25 1   
    17     9    22 2   
    18    10    12 ar  
    19    10    20 ar  
    20    10    22 1   
    21    11    24 1   
    22    11    43 1   
    23    12    14 ar  
    24    13    41 1   
    25    13    51 1   
    26    14    16 ar  
    27    14    28 1   
    28    15    39 1   
    29    15    49 1   
    30    16    18 ar  
    31    17    49 2   
    32    18    20 ar  
    33    19    37 1   
    34    19    56 1   
    35    21    35 1   
    36    21    57 1   
    37    22    24 1   
    38    23    29 2   
    39    24    26 1   
    40    25    58 1   
    41    26    59 1   
    42    26    60 1   
    43    26    61 1   
    44    27    52 2   
    45    28    62 1   
    46    28    63 1   
    47    28    64 1   
    48    29    30 1   
    49    30    31 2   
    50    30    44 1   
    51    31    32 1   
    52    31    65 1   
    53    32    33 2   
    54    32    66 1   
    55    33    34 1   
    56    33    67 1   
    57    34    35 1   
    58    34    45 1   
    59    34    68 1   
    60    35    36 1   
    61    35    69 1   
    62    36    37 1   
    63    36    46 1   
    64    36    70 1   
    65    37    38 1   
    66    37    71 1   
    67    38    39 1   
    68    38    47 1   
    69    38    72 1   
    70    39    40 1   
    71    39    73 1   
    72    40    41 1   
    73    40    48 1   
    74    40    74 1   
    75    41    42 1   
    76    41    75 1   
    77    42    43 2   
    78    42    76 1   
    79    43    77 1   
    80    44    78 1   
    81    44    79 1   
    82    44    80 1   
    83    45    81 1   
    84    45    82 1   
    85    45    83 1   
    86    46    84 1   
    87    46    85 1   
    88    46    86 1   
    89    47    87 1   
    90    47    88 1   
    91    47    89 1   
    92    48    90 1   
    93    48    91 1   
    94    48    92 1   
    95    49    50 1   
    96    50    93 1   
    97    50    94 1   
    98    50    95 1   
    99    51    96 1   
   100    51    97 1   
   101    51    98 1   
   102    52    99 1   
@<TRIPOS>SUBSTRUCTURE
     1 3YI         1 TEMP              0 ****  ****    0 ROOT
