@<TRIPOS>MOLECULE
3YJ
   90    93     1     0     0
SMALL
bcc


@<TRIPOS>ATOM
      1 N1         -34.7180     8.3230    14.8700 n          1 3YJ      -0.479800
      2 C4         -27.6840     2.5710    26.4970 ca         1 3YJ      -0.167000
      3 C5         -28.9590     2.0540    26.7130 ca         1 3YJ      -0.032300
      4 C6         -29.1210     0.7020    27.0440 ca         1 3YJ      -0.101300
      5 C7         -30.1350     2.9910    26.5950 c6         1 3YJ      -0.032100
      6 C8         -31.4570     2.2680    26.3590 c6         1 3YJ      -0.048700
      7 C10        -30.4970     0.0950    27.2340 c6         1 3YJ      -0.005400
      8 C13        -31.9620    -1.5620    28.5040 c6         1 3YJ      -0.064400
      9 C15        -34.2080     1.3110    27.5470 c5         1 3YJ      -0.070400
     10 C17        -34.4910    -0.9810    28.4060 c5         1 3YJ       0.150100
     11 C20        -31.9470     2.8540    23.9220 c3         1 3YJ      -0.075400
     12 C21        -32.0970     2.3270    22.5010 c3         1 3YJ      -0.075400
     13 C22        -32.5430     3.3880    21.5040 c3         1 3YJ      -0.074400
     14 C24        -33.1940     3.8980    19.0980 c3         1 3YJ      -0.076400
     15 C26        -33.9100     4.3670    16.6830 c3         1 3YJ      -0.073400
     16 C28        -33.2610     6.3840    15.2550 c3         1 3YJ      -0.152400
     17 C1         -27.9720    -0.0840    27.1290 ca         1 3YJ      -0.088000
     18 C11        -32.9260     0.4810    27.4740 c5         1 3YJ      -0.060700
     19 C12        -33.0490    -0.4990    28.6480 c5         1 3YJ      -0.086000
     20 C14        -30.5690    -0.9390    28.3680 c6         1 3YJ      -0.067400
     21 C16        -35.2630     0.3090    28.0710 c5         1 3YJ      -0.075400
     22 C18        -32.9500     0.1790    30.0180 c3         1 3YJ      -0.073100
     23 C19        -31.5930     1.7600    24.9210 c3         1 3YJ      -0.074400
     24 C2         -26.7020     0.4280    26.9190 ca         1 3YJ      -0.224000
     25 C23        -32.7500     2.8390    20.0980 c3         1 3YJ      -0.075400
     26 C25        -33.4520     3.3320    17.7060 c3         1 3YJ      -0.070400
     27 C27        -32.8290     5.3780    16.3130 c3         1 3YJ      -0.061400
     28 C29        -34.2040     7.4560    15.7730 c          1 3YJ       0.663100
     29 C3         -26.5520     1.7740    26.6030 ca         1 3YJ       0.137100
     30 C30        -35.5690     9.3920    15.3580 c3         1 3YJ       0.087300
     31 C31        -34.2570     8.4260    13.4960 c3         1 3YJ       0.101000
     32 C32        -33.1280     9.4330    13.3090 c3         1 3YJ      -0.106400
     33 C33        -32.6940     9.5220    11.8530 c3         1 3YJ      -0.089100
     34 C9         -31.5760     1.1720    27.4220 c6         1 3YJ      -0.043700
     35 O2         -35.1160    -1.6610    29.4670 oh         1 3YJ      -0.589800
     36 O3         -34.4890     7.5420    16.9610 o          1 3YJ      -0.601100
     37 H1         -27.5700     3.6190    26.2380 ha         1 3YJ       0.143000
     38 H2         -29.9390     3.7190    25.8030 hc         1 3YJ       0.051700
     39 H3         -30.2100     3.5770    27.5170 hc         1 3YJ       0.051700
     40 H4         -32.2640     2.9880    26.5350 hc         1 3YJ       0.049700
     41 H5         -30.7460    -0.4440    26.3080 hc         1 3YJ       0.052700
     42 H6         -32.1670    -2.1650    27.6110 hc         1 3YJ       0.037700
     43 H7         -31.9710    -2.2510    29.3540 hc         1 3YJ       0.037700
     44 H8         -34.0930     2.1540    28.2320 hc         1 3YJ       0.045200
     45 H9         -34.4800     1.7310    26.5770 hc         1 3YJ       0.045200
     46 H10        -34.4710    -1.6200    27.5090 h1         1 3YJ       0.025700
     47 H11        -31.1920     3.6480    23.9340 hc         1 3YJ       0.036700
     48 H12        -32.8860     3.3260    24.2320 hc         1 3YJ       0.036700
     49 H13        -32.8220     1.5040    22.5000 hc         1 3YJ       0.036200
     50 H14        -31.1480     1.8910    22.1720 hc         1 3YJ       0.036200
     51 H15        -31.8050     4.1970    21.4740 hc         1 3YJ       0.038700
     52 H16        -33.4760     3.8430    21.8530 hc         1 3YJ       0.038700
     53 H17        -32.4340     4.6840    19.0510 hc         1 3YJ       0.042700
     54 H18        -34.1070     4.3830    19.4620 hc         1 3YJ       0.042700
     55 H19        -34.7960     4.8850    17.0600 hc         1 3YJ       0.042700
     56 H20        -34.2260     3.8490    15.7710 hc         1 3YJ       0.042700
     57 H21        -33.7220     5.8540    14.4160 hc         1 3YJ       0.055700
     58 H22        -32.3780     6.8780    14.8380 hc         1 3YJ       0.055700
     59 H23        -28.0590    -1.1380    27.3600 ha         1 3YJ       0.127000
     60 H24        -33.0020    -0.1350    26.5650 hc         1 3YJ       0.044700
     61 H25        -29.8520    -1.7430    28.1940 hc         1 3YJ       0.042200
     62 H26        -30.2680    -0.4640    29.3070 hc         1 3YJ       0.042200
     63 H27        -35.7560     0.6880    28.9690 hc         1 3YJ       0.053700
     64 H28        -36.0480     0.1200    27.3380 hc         1 3YJ       0.053700
     65 H29        -33.0960    -0.5540    30.8120 hc         1 3YJ       0.036033
     66 H30        -31.9750     0.6360    30.1840 hc         1 3YJ       0.036033
     67 H31        -33.6970     0.9610    30.1590 hc         1 3YJ       0.036033
     68 H32        -32.3740     0.9950    24.8680 hc         1 3YJ       0.043200
     69 H33        -30.6690     1.2630    24.6060 hc         1 3YJ       0.043200
     70 H34        -25.8360    -0.2210    26.9970 ha         1 3YJ       0.130000
     71 H35        -33.4930     2.0350    20.1330 hc         1 3YJ       0.034700
     72 H36        -31.8210     2.3760    19.7480 hc         1 3YJ       0.034700
     73 H37        -34.2100     2.5470    17.7840 hc         1 3YJ       0.033700
     74 H38        -32.5440     2.8380    17.3410 hc         1 3YJ       0.033700
     75 H39        -31.9650     4.8320    15.9240 hc         1 3YJ       0.046700
     76 H40        -32.4750     5.9100    17.1990 hc         1 3YJ       0.046700
     77 H41        -36.3650     9.0010    15.9890 h1         1 3YJ       0.040367
     78 H42        -35.0150    10.1370    15.9340 h1         1 3YJ       0.040367
     79 H43        -36.0260     9.8920    14.5080 h1         1 3YJ       0.040367
     80 H44        -35.1100     8.7150    12.8770 h1         1 3YJ       0.049200
     81 H45        -33.9430     7.4490    13.1340 h1         1 3YJ       0.049200
     82 H46        -32.2780     9.1450    13.9340 hc         1 3YJ       0.046700
     83 H47        -33.4520    10.4160    13.6610 hc         1 3YJ       0.046700
     84 H48        -31.8800    10.2350    11.7250 hc         1 3YJ       0.035033
     85 H49        -32.3460     8.5550    11.4860 hc         1 3YJ       0.035033
     86 H50        -33.5180     9.8420    11.2130 hc         1 3YJ       0.035033
     87 H51        -31.4010     1.6640    28.3890 hc         1 3YJ       0.055700
     88 H52        -24.6450     1.6990    26.4780 ho         1 3YJ       0.424000
     89 H53        -34.6590    -2.4970    29.6020 ho         1 3YJ       0.403000
     90 O1         -25.3490     2.3500    26.3840 oh         1 3YJ      -0.497100
@<TRIPOS>BOND
     1     1    28 1   
     2     1    30 1   
     3     1    31 1   
     4     2     3 ar  
     5     2    29 ar  
     6     2    37 1   
     7     3     4 ar  
     8     3     5 1   
     9     4     7 1   
    10     4    17 ar  
    11     5     6 1   
    12     5    38 1   
    13     5    39 1   
    14     6    23 1   
    15     6    34 1   
    16     6    40 1   
    17     7    20 1   
    18     7    34 1   
    19     7    41 1   
    20     8    19 1   
    21     8    20 1   
    22     8    42 1   
    23     8    43 1   
    24     9    18 1   
    25     9    21 1   
    26     9    44 1   
    27     9    45 1   
    28    10    19 1   
    29    10    21 1   
    30    10    35 1   
    31    10    46 1   
    32    11    12 1   
    33    11    23 1   
    34    11    47 1   
    35    11    48 1   
    36    12    13 1   
    37    12    49 1   
    38    12    50 1   
    39    13    25 1   
    40    13    51 1   
    41    13    52 1   
    42    14    25 1   
    43    14    26 1   
    44    14    53 1   
    45    14    54 1   
    46    15    26 1   
    47    15    27 1   
    48    15    55 1   
    49    15    56 1   
    50    16    27 1   
    51    16    28 1   
    52    16    57 1   
    53    16    58 1   
    54    17    24 ar  
    55    17    59 1   
    56    18    19 1   
    57    18    34 1   
    58    18    60 1   
    59    19    22 1   
    60    20    61 1   
    61    20    62 1   
    62    21    63 1   
    63    21    64 1   
    64    22    65 1   
    65    22    66 1   
    66    22    67 1   
    67    23    68 1   
    68    23    69 1   
    69    24    29 ar  
    70    24    70 1   
    71    25    71 1   
    72    25    72 1   
    73    26    73 1   
    74    26    74 1   
    75    27    75 1   
    76    27    76 1   
    77    28    36 2   
    78    29    90 1   
    79    30    77 1   
    80    30    78 1   
    81    30    79 1   
    82    31    32 1   
    83    31    80 1   
    84    31    81 1   
    85    32    33 1   
    86    32    82 1   
    87    32    83 1   
    88    33    84 1   
    89    33    85 1   
    90    33    86 1   
    91    34    87 1   
    92    35    89 1   
    93    88    90 1   
@<TRIPOS>SUBSTRUCTURE
     1 3YJ         1 TEMP              0 ****  ****    0 ROOT
