@<TRIPOS>MOLECULE
3YJ
   90    93     1     0     0
SMALL
No Charge or Current Charge


@<TRIPOS>ATOM
      1 N1         -34.4950     8.6320    14.5570 n          1 3YJ      -0.412800
      2 C4         -27.8710     2.8510    26.3630 ca         1 3YJ      -0.149000
      3 C5         -29.0900     2.2080    26.6550 ca         1 3YJ      -0.032300
      4 C6         -29.1040     0.8200    26.9590 ca         1 3YJ      -0.101300
      5 C7         -30.3710     3.0520    26.6520 c6         1 3YJ      -0.032100
      6 C8         -31.6710     2.2190    26.5000 c6         1 3YJ      -0.048700
      7 C10        -30.4340     0.0820    27.2600 c6         1 3YJ      -0.005400
      8 C13        -31.6880    -1.7450    28.6230 c6         1 3YJ      -0.064400
      9 C15        -34.2450     1.0350    28.0350 c5         1 3YJ      -0.070400
     10 C17        -34.2900    -1.3690    28.6900 c5         1 3YJ       0.173300
     11 C20        -32.1840     2.8510    23.9930 c3         1 3YJ      -0.075400
     12 C21        -32.5450     2.3040    22.5950 c3         1 3YJ      -0.075400
     13 C22        -32.8040     3.4180    21.5580 c3         1 3YJ      -0.074400
     14 C24        -33.4240     3.9850    19.1220 c3         1 3YJ      -0.076400
     15 C26        -34.1350     4.5190    16.6770 c3         1 3YJ      -0.073400
     16 C28        -33.2920     6.4560    15.1680 c3         1 3YJ      -0.152400
     17 C1         -27.8850     0.1050    26.9120 ca         1 3YJ      -0.070000
     18 C11        -32.9300     0.2680    27.7270 c5         1 3YJ      -0.060700
     19 C12        -32.8630    -0.7600    28.9000 c5         1 3YJ      -0.086000
     20 C14        -30.3370    -0.9990    28.3920 c6         1 3YJ      -0.067400
     21 C16        -35.1950    -0.0940    28.5700 c5         1 3YJ      -0.075400
     22 C18        -32.6650    -0.1480    30.3360 c3         1 3YJ      -0.073100
     23 C19        -31.9200     1.7320    25.0290 c3         1 3YJ      -0.074400
     24 C2         -26.6770     0.7570    26.6130 ca         1 3YJ      -0.206000
     25 C23        -33.1650     2.8700    20.1600 c3         1 3YJ      -0.075400
     26 C25        -33.7820     3.4330    17.7220 c3         1 3YJ      -0.070400
     27 C27        -32.9550     5.4500    16.2980 c3         1 3YJ      -0.061400
     28 C29        -34.2120     7.6450    15.5360 c          1 3YJ       0.596100
     29 C3         -26.6710     2.1300    26.3450 ca         1 3YJ       0.137100
     30 C30        -35.3640     9.7810    14.9010 c3         1 3YJ       0.087300
     31 C31        -33.9690     8.5800    13.1710 c3         1 3YJ       0.101000
     32 C32        -32.6960     9.4310    12.9850 c3         1 3YJ      -0.106400
     33 C33        -32.1440     9.3800    11.5480 c3         1 3YJ      -0.089100
     34 C9         -31.6090     1.0750    27.5570 c6         1 3YJ      -0.043700
     35 O2         -34.7010    -2.2260    29.7530 oh         1 3YJ      -0.652000
     36 O3         -34.6830     7.7520    16.6620 o          1 3YJ      -0.601100
     37 H1         -27.8560     3.9150    26.1450 ha         1 3YJ       0.125000
     38 H2         -30.3130     3.8280    25.8790 hc         1 3YJ       0.051700
     39 H3         -30.4160     3.6030    27.6020 hc         1 3YJ       0.051700
     40 H4         -32.5160     2.8760    26.7480 hc         1 3YJ       0.049700
     41 H5         -30.6860    -0.4660    26.3420 hc         1 3YJ       0.052700
     42 H6         -31.9150    -2.3440    27.7290 hc         1 3YJ       0.037700
     43 H7         -31.5840    -2.4630    29.4480 hc         1 3YJ       0.037700
     44 H8         -34.0940     1.8220    28.7830 hc         1 3YJ       0.045200
     45 H9         -34.6510     1.5220    27.1410 hc         1 3YJ       0.045200
     46 H10        -34.3210    -1.9280    27.7440 h1         1 3YJ       0.025700
     47 H11        -31.2970     3.4880    23.8990 hc         1 3YJ       0.036700
     48 H12        -33.0030     3.4880    24.3520 hc         1 3YJ       0.036700
     49 H13        -33.4380     1.6710    22.6740 hc         1 3YJ       0.036200
     50 H14        -31.7280     1.6630    22.2380 hc         1 3YJ       0.036200
     51 H15        -31.9110     4.0510    21.4780 hc         1 3YJ       0.038700
     52 H16        -33.6200     4.0590    21.9150 hc         1 3YJ       0.038700
     53 H17        -32.5300     4.6150    19.0520 hc         1 3YJ       0.042700
     54 H18        -34.2420     4.6240    19.4780 hc         1 3YJ       0.042700
     55 H19        -34.9750     5.1150    17.0530 hc         1 3YJ       0.042700
     56 H20        -34.4910     4.0170    15.7690 hc         1 3YJ       0.042700
     57 H21        -33.7200     5.9410    14.3010 hc         1 3YJ       0.055700
     58 H22        -32.3760     6.8720    14.7330 hc         1 3YJ       0.055700
     59 H23        -27.8590    -0.9660    27.0930 ha         1 3YJ       0.109000
     60 H24        -33.0500    -0.2690    26.7770 hc         1 3YJ       0.044700
     61 H25        -29.5850    -1.7550    28.1370 hc         1 3YJ       0.042200
     62 H26        -29.9880    -0.5330    29.3230 hc         1 3YJ       0.042200
     63 H27        -35.6300     0.1910    29.5340 hc         1 3YJ       0.053700
     64 H28        -36.0350    -0.2740    27.8900 hc         1 3YJ       0.053700
     65 H29        -32.6200    -0.9380    31.0950 hc         1 3YJ       0.036033
     66 H30        -31.7390     0.4270    30.4280 hc         1 3YJ       0.036033
     67 H31        -33.4800     0.5210    30.6330 hc         1 3YJ       0.036033
     68 H32        -32.7870     1.0630    25.0060 hc         1 3YJ       0.043200
     69 H33        -31.0680     1.1380    24.6770 hc         1 3YJ       0.043200
     70 H34        -25.7520     0.1850    26.5880 ha         1 3YJ       0.112000
     71 H35        -34.0580     2.2380    20.2400 hc         1 3YJ       0.034700
     72 H36        -32.3490     2.2290    19.8030 hc         1 3YJ       0.034700
     73 H37        -34.6410     2.7580    17.8190 hc         1 3YJ       0.033700
     74 H38        -32.9490     2.8270    17.3460 hc         1 3YJ       0.033700
     75 H39        -32.1150     4.8270    15.9660 hc         1 3YJ       0.046700
     76 H40        -32.6060     6.0020    17.1780 hc         1 3YJ       0.046700
     77 H41        -36.3660     9.4200    15.1650 h1         1 3YJ       0.040367
     78 H42        -34.9390    10.3250    15.7540 h1         1 3YJ       0.040367
     79 H43        -35.4490    10.4710    14.0510 h1         1 3YJ       0.040367
     80 H44        -34.7450     8.9560    12.4900 h1         1 3YJ       0.049200
     81 H45        -33.7680     7.5470    12.8650 h1         1 3YJ       0.049200
     82 H46        -31.9210     9.0820    13.6790 hc         1 3YJ       0.046700
     83 H47        -32.9150    10.4730    13.2480 hc         1 3YJ       0.046700
     84 H48        -31.2420     9.9990    11.4630 hc         1 3YJ       0.035033
     85 H49        -31.8820     8.3520    11.2690 hc         1 3YJ       0.035033
     86 H50        -32.8860     9.7560    10.8330 hc         1 3YJ       0.035033
     87 H51        -31.3990     1.5620    28.5190 hc         1 3YJ       0.055700
     88 H52        -24.7760     2.1060    26.0900 ho         1 3YJ       0.463000
     89 H53        -34.0000    -2.9060    29.8470 ho         1 3YJ       0.442000
     90 O1         -25.5010     2.7660    26.0570 oh         1 3YJ      -0.536100
@<TRIPOS>BOND
     1     1    28 1   
     2     1    30 1   
     3     1    31 1   
     4     2     3 ar  
     5     2    29 ar  
     6     2    37 1   
     7     3     4 ar  
     8     3     5 1   
     9     4     7 1   
    10     4    17 ar  
    11     5     6 1   
    12     5    38 1   
    13     5    39 1   
    14     6    23 1   
    15     6    34 1   
    16     6    40 1   
    17     7    20 1   
    18     7    34 1   
    19     7    41 1   
    20     8    19 1   
    21     8    20 1   
    22     8    42 1   
    23     8    43 1   
    24     9    18 1   
    25     9    21 1   
    26     9    44 1   
    27     9    45 1   
    28    10    19 1   
    29    10    21 1   
    30    10    35 1   
    31    10    46 1   
    32    11    12 1   
    33    11    23 1   
    34    11    47 1   
    35    11    48 1   
    36    12    13 1   
    37    12    49 1   
    38    12    50 1   
    39    13    25 1   
    40    13    51 1   
    41    13    52 1   
    42    14    25 1   
    43    14    26 1   
    44    14    53 1   
    45    14    54 1   
    46    15    26 1   
    47    15    27 1   
    48    15    55 1   
    49    15    56 1   
    50    16    27 1   
    51    16    28 1   
    52    16    57 1   
    53    16    58 1   
    54    17    24 ar  
    55    17    59 1   
    56    18    19 1   
    57    18    34 1   
    58    18    60 1   
    59    19    22 1   
    60    20    61 1   
    61    20    62 1   
    62    21    63 1   
    63    21    64 1   
    64    22    65 1   
    65    22    66 1   
    66    22    67 1   
    67    23    68 1   
    68    23    69 1   
    69    24    29 ar  
    70    24    70 1   
    71    25    71 1   
    72    25    72 1   
    73    26    73 1   
    74    26    74 1   
    75    27    75 1   
    76    27    76 1   
    77    28    36 2   
    78    29    90 1   
    79    30    77 1   
    80    30    78 1   
    81    30    79 1   
    82    31    32 1   
    83    31    80 1   
    84    31    81 1   
    85    32    33 1   
    86    32    82 1   
    87    32    83 1   
    88    33    84 1   
    89    33    85 1   
    90    33    86 1   
    91    34    87 1   
    92    35    89 1   
    93    88    90 1   
@<TRIPOS>SUBSTRUCTURE
     1 3YJ         1 TEMP              0 ****  ****    0 ROOT
