@<TRIPOS>MOLECULE
3YN
   56    58     1     0     0
SMALL
No Charge or Current Charge


@<TRIPOS>ATOM
      1 O4P         -2.9560    -0.9320     2.6890 o          1 3YN      -0.841000
      2 P2          -1.4940    -0.6610     2.5630 p5         1 3YN       1.458800
      3 O3P         -0.8940    -0.2690     3.8720 o          1 3YN      -0.841000
      4 O1          -1.2210     0.5100     1.4960 os         1 3YN      -0.550400
      5 C1          -2.1320     0.7310     0.4250 c6         1 3YN       0.452300
      6 C2          -2.2970    -0.4830    -0.5300 c6         1 3YN      -0.107400
      7 C3          -3.1370    -0.1650    -1.8020 c6         1 3YN       0.072300
      8 O3          -4.5420    -0.3140    -1.5040 oh         1 3YN      -0.639000
      9 C4          -2.8450     1.2500    -2.4000 c          1 3YN       0.521100
     10 O4          -2.8750     1.4630    -3.6100 o          1 3YN      -0.565100
     11 C5          -2.4710     2.3520    -1.3710 c6         1 3YN       0.107300
     12 O5          -1.6020     1.8440    -0.3280 os         1 3YN      -0.464000
     13 C6          -3.7310     3.0090    -0.7340 c3         1 3YN      -0.114100
     14 OPP         -0.7340    -1.8010     1.7860 os         1 3YN      -0.689800
     15 P           -0.0470    -2.8900     2.6910 p5         1 3YN       1.455800
     16 O1P         -1.0250    -3.6050     3.5640 o          1 3YN      -0.847500
     17 O2P          1.1570    -2.4260     3.4430 o          1 3YN      -0.847500
     18 O8           0.4120    -3.8870     1.5040 os         1 3YN      -0.568400
     19 C11          1.5760    -3.6330     0.6850 c3         1 3YN       0.225600
     20 C10          1.3660    -2.3900    -0.2270 c5         1 3YN       0.166300
     21 O7           1.8100    -1.1810     0.4150 os         1 3YN      -0.402000
     22 C9           2.2130    -2.3460    -1.5330 c5         1 3YN       0.127300
     23 O6           1.7600    -3.2540    -2.5410 oh         1 3YN      -0.705000
     24 C8           2.0020    -0.8590    -1.9560 c5         1 3YN      -0.153400
     25 C7           1.7150    -0.1630    -0.5870 c5         1 3YN       0.349700
     26 N11          2.6780     0.9510    -0.4010 n          1 3YN      -0.312000
     27 C21          4.0120     0.6910    -0.0170 c          1 3YN       0.623000
     28 O21          4.4950    -0.4230     0.0970 o          1 3YN      -0.529000
     29 N31          4.7870     1.7860     0.1990 ns         1 3YN      -0.465500
     30 C41          4.4490     3.0960     0.0930 c          1 3YN       0.597200
     31 O41          5.2650     3.9750     0.3200 o          1 3YN      -0.563000
     32 C51          3.0460     3.3300    -0.3100 cc         1 3YN      -0.298400
     33 C5A          2.6200     4.7730    -0.4370 c3         1 3YN      -0.007900
     34 C61          2.2120     2.2570    -0.5390 cd         1 3YN       0.022600
     35 H2          -3.1120     0.9970     0.8480 h2         1 3YN       0.054700
     36 H3          -1.3000    -0.8030    -0.8520 hc         1 3YN       0.068200
     37 H4          -2.7410    -1.3400    -0.0090 hc         1 3YN       0.068200
     38 H5          -2.8570    -0.8940    -2.5770 h1         1 3YN       0.028700
     39 H6          -5.0250    -0.3150    -2.3610 ho         1 3YN       0.425000
     40 H7          -1.9190     3.1260    -1.9220 h1         1 3YN       0.071700
     41 H8          -4.4190     2.2720    -0.3040 hc         1 3YN       0.045033
     42 H9          -3.4490     3.7150     0.0560 hc         1 3YN       0.045033
     43 H10         -4.2930     3.5710    -1.4890 hc         1 3YN       0.045033
     44 H12          2.4730    -3.4900     1.3020 h1         1 3YN       0.031200
     45 H13          1.7590    -4.5050     0.0440 h1         1 3YN       0.031200
     46 H14          0.2990    -2.3150    -0.4720 h1         1 3YN       0.070700
     47 H15          3.2710    -2.5320    -1.2910 h1         1 3YN       0.071700
     48 H16          2.3220    -3.1080    -3.3370 ho         1 3YN       0.488000
     49 H17          2.8750    -0.4550    -2.4800 hc         1 3YN       0.051200
     50 H18          1.1410    -0.7400    -2.6240 hc         1 3YN       0.051200
     51 H19          0.7070     0.2670    -0.5780 h2         1 3YN       0.044700
     52 H20          5.7390     1.6000     0.4690 hn         1 3YN       0.339500
     53 H21          2.7360     5.3030     0.5160 hc         1 3YN       0.035367
     54 H22          3.2200     5.2960    -1.1920 hc         1 3YN       0.035367
     55 H23          1.5680     4.8530    -0.7350 hc         1 3YN       0.035367
     56 H24          1.1660     2.3430    -0.8250 h4         1 3YN       0.197000
@<TRIPOS>BOND
     1     1     2 1   
     2     2     3 1   
     3     2     4 1   
     4     2    14 1   
     5     4     5 1   
     6     5     6 1   
     7     5    12 1   
     8     5    35 1   
     9     6     7 1   
    10     6    36 1   
    11     6    37 1   
    12     7     8 1   
    13     7     9 1   
    14     7    38 1   
    15     8    39 1   
    16     9    10 2   
    17     9    11 1   
    18    11    12 1   
    19    11    13 1   
    20    11    40 1   
    21    13    41 1   
    22    13    42 1   
    23    13    43 1   
    24    14    15 1   
    25    15    16 1   
    26    15    17 1   
    27    15    18 1   
    28    18    19 1   
    29    19    20 1   
    30    19    44 1   
    31    19    45 1   
    32    20    21 1   
    33    20    22 1   
    34    20    46 1   
    35    21    25 1   
    36    22    23 1   
    37    22    24 1   
    38    22    47 1   
    39    23    48 1   
    40    24    25 1   
    41    24    49 1   
    42    24    50 1   
    43    25    26 1   
    44    25    51 1   
    45    26    27 1   
    46    26    34 1   
    47    27    28 2   
    48    27    29 1   
    49    29    30 1   
    50    29    52 1   
    51    30    31 2   
    52    30    32 1   
    53    32    33 1   
    54    32    34 2   
    55    33    53 1   
    56    33    54 1   
    57    33    55 1   
    58    34    56 1   
@<TRIPOS>SUBSTRUCTURE
     1 3YN         1 TEMP              0 ****  ****    0 ROOT
