@<TRIPOS>MOLECULE
3YN
   56    58     1     0     0
SMALL
bcc


@<TRIPOS>ATOM
      1 O4P         -3.7370    -2.2190     0.2600 o          1 3YN      -0.841000
      2 P2          -2.9570    -1.1300     0.9230 p5         1 3YN       1.458800
      3 O3P         -2.9850    -0.9510     2.4050 o          1 3YN      -0.841000
      4 O1          -3.3030     0.3090     0.1660 os         1 3YN      -0.527200
      5 C1          -4.6080     0.6130    -0.1770 c6         1 3YN       0.405900
      6 C2          -4.6010     1.6840    -1.2520 c6         1 3YN      -0.107400
      7 C3          -6.0150     2.1120    -1.5950 c6         1 3YN       0.049100
      8 O3          -6.6500     1.0430    -2.2700 oh         1 3YN      -0.576800
      9 C4          -6.8280     2.3900    -0.3350 c          1 3YN       0.521100
     10 O4          -7.6860     3.2420    -0.3110 o          1 3YN      -0.565100
     11 C5          -6.5850     1.4880     0.8660 c6         1 3YN       0.084100
     12 O5          -5.2290     1.1190     0.9870 os         1 3YN      -0.417600
     13 C6          -7.5400     0.2940     0.8490 c3         1 3YN      -0.114100
     14 OPP         -1.4050    -1.1450     0.3960 os         1 3YN      -0.689800
     15 P           -0.1720    -1.7860     1.2760 p5         1 3YN       1.455800
     16 O1P         -0.5370    -3.1560     1.7540 o          1 3YN      -0.847500
     17 O2P          0.3730    -0.7700     2.2290 o          1 3YN      -0.847500
     18 O8           0.8230    -1.9010    -0.0310 os         1 3YN      -0.545200
     19 C11          2.1210    -2.4080     0.1980 c3         1 3YN       0.202400
     20 C10          3.0040    -2.0930    -0.9840 c5         1 3YN       0.143100
     21 O7           3.2090    -0.6940    -1.0770 os         1 3YN      -0.355600
     22 C9           4.3880    -2.7360    -0.8720 c5         1 3YN       0.104100
     23 O6           4.3560    -3.9940    -1.4990 oh         1 3YN      -0.582800
     24 C8           5.2930    -1.7070    -1.5500 c5         1 3YN      -0.153400
     25 C7           4.5040    -0.3960    -1.5090 c5         1 3YN       0.326500
     26 N11          5.0630     0.6650    -0.6700 n          1 3YN      -0.379000
     27 C21          5.2860     0.4380     0.6680 c          1 3YN       0.832500
     28 O21          5.0830    -0.6270     1.2120 o          1 3YN      -0.604500
     29 N31          5.7700     1.5210     1.3550 ns         1 3YN      -0.599500
     30 C41          6.0520     2.7840     0.8690 c          1 3YN       0.739700
     31 O41          6.4820     3.6510     1.6080 o          1 3YN      -0.638500
     32 C51          5.7870     2.9520    -0.5450 cc         1 3YN      -0.298400
     33 C5A          6.0520     4.2780    -1.1790 c3         1 3YN      -0.007900
     34 C61          5.3070     1.8950    -1.2240 cd         1 3YN       0.072600
     35 H2          -5.1360    -0.2840    -0.5270 h2         1 3YN       0.054700
     36 H3          -4.0450     2.5530    -0.8880 hc         1 3YN       0.068200
     37 H4          -4.1000     1.3260    -2.1540 hc         1 3YN       0.068200
     38 H5          -5.9980     3.0210    -2.2090 h1         1 3YN       0.028700
     39 H6          -7.4950     1.3490    -2.6180 ho         1 3YN       0.386000
     40 H7          -6.8060     2.0810     1.7570 h1         1 3YN       0.071700
     41 H8          -7.4070    -0.3450    -0.0220 hc         1 3YN       0.045033
     42 H9          -7.3880    -0.3080     1.7450 hc         1 3YN       0.045033
     43 H10         -8.5720     0.6450     0.8540 hc         1 3YN       0.045033
     44 H12          2.5700    -1.9740     1.0980 h1         1 3YN       0.031200
     45 H13          2.0990    -3.4960     0.3280 h1         1 3YN       0.031200
     46 H14          2.5290    -2.4580    -1.9060 h1         1 3YN       0.070700
     47 H15          4.6650    -2.8410     0.1800 h1         1 3YN       0.071700
     48 H16          5.1180    -4.4970    -1.2010 ho         1 3YN       0.389000
     49 H17          6.2800    -1.6260    -1.0970 hc         1 3YN       0.051200
     50 H18          5.4350    -1.9930    -2.5940 hc         1 3YN       0.051200
     51 H19          4.4720     0.0450    -2.5080 h2         1 3YN       0.044700
     52 H20          5.9420     1.3630     2.3400 hn         1 3YN       0.339500
     53 H21          5.4620     5.0680    -0.7110 hc         1 3YN       0.035367
     54 H22          7.1010     4.5600    -1.0850 hc         1 3YN       0.035367
     55 H23          5.8040     4.2600    -2.2390 hc         1 3YN       0.035367
     56 H24          5.0880     1.9700    -2.2810 h4         1 3YN       0.147000
@<TRIPOS>BOND
     1     1     2 1   
     2     2     3 1   
     3     2     4 1   
     4     2    14 1   
     5     4     5 1   
     6     5     6 1   
     7     5    12 1   
     8     5    35 1   
     9     6     7 1   
    10     6    36 1   
    11     6    37 1   
    12     7     8 1   
    13     7     9 1   
    14     7    38 1   
    15     8    39 1   
    16     9    10 2   
    17     9    11 1   
    18    11    12 1   
    19    11    13 1   
    20    11    40 1   
    21    13    41 1   
    22    13    42 1   
    23    13    43 1   
    24    14    15 1   
    25    15    16 1   
    26    15    17 1   
    27    15    18 1   
    28    18    19 1   
    29    19    20 1   
    30    19    44 1   
    31    19    45 1   
    32    20    21 1   
    33    20    22 1   
    34    20    46 1   
    35    21    25 1   
    36    22    23 1   
    37    22    24 1   
    38    22    47 1   
    39    23    48 1   
    40    24    25 1   
    41    24    49 1   
    42    24    50 1   
    43    25    26 1   
    44    25    51 1   
    45    26    27 1   
    46    26    34 1   
    47    27    28 2   
    48    27    29 1   
    49    29    30 1   
    50    29    52 1   
    51    30    31 2   
    52    30    32 1   
    53    32    33 1   
    54    32    34 2   
    55    33    53 1   
    56    33    54 1   
    57    33    55 1   
    58    34    56 1   
@<TRIPOS>SUBSTRUCTURE
     1 3YN         1 TEMP              0 ****  ****    0 ROOT
