@<TRIPOS>MOLECULE
3YO
   62    67     1     0     0
SMALL
abcg2


@<TRIPOS>ATOM
      1 C1          -0.8980     0.2460     0.1740 c3         1 3YO      -0.054800
      2 C2          -1.1990     1.6850    -0.1280 ca         1 3YO      -0.038300
      3 C3          -0.2200     2.6870    -0.1000 ca         1 3YO      -0.122900
      4 C4          -0.5770     4.0180    -0.3030 ca         1 3YO      -0.053000
      5 C5          -1.8850     4.3790    -0.5710 ca         1 3YO      -0.153000
      6 C6          -2.8330     3.3820    -0.6400 ca         1 3YO       0.199000
      7 C7          -2.5170     2.0500    -0.4180 ca         1 3YO      -0.097000
      8 N8          -3.5300     1.0760    -0.4950 ns         1 3YO      -0.162000
      9 C9          -4.5710     1.0450     0.3750 c          1 3YO       0.644300
     10 O10         -4.6830     1.8280     1.2990 o          1 3YO      -0.563100
     11 C11         -5.5710    -0.0180     0.1450 cc         1 3YO      -0.137600
     12 C12         -6.4620    -0.4410     1.0750 cd         1 3YO      -0.094200
     13 C13         -7.3060    -1.4890     0.5990 ca         1 3YO      -0.092800
     14 C14         -8.3260    -2.1740     1.2720 ca         1 3YO      -0.059000
     15 C15         -9.0260    -3.1590     0.6110 ca         1 3YO      -0.117000
     16 C16         -8.7280    -3.4810    -0.7210 ca         1 3YO      -0.090000
     17 C17         -7.7280    -2.8220    -1.4080 ca         1 3YO      -0.087000
     18 C18         -7.0200    -1.8280    -0.7360 ca         1 3YO      -0.146000
     19 S19         -5.7360    -0.8590    -1.3720 ss         1 3YO       0.058400
     20 F20         -4.0950     3.6990    -0.9420 f          1 3YO      -0.161000
     21 C21          1.2070     2.3790     0.1510 cc         1 3YO       0.437200
     22 C22          1.9010     1.4250    -0.6380 cc         1 3YO      -0.365600
     23 C23          3.2250     1.1840    -0.4230 cd         1 3YO       0.103800
     24 C24          3.9140     1.9720     0.6020 c          1 3YO       0.526200
     25 O25          5.1130     1.9250     0.8380 o          1 3YO      -0.528000
     26 N26          3.0850     2.8160     1.2800 ns         1 3YO      -0.221900
     27 N28          1.7900     3.0540     1.0920 nd         1 3YO      -0.437300
     28 N29          3.9620     0.3370    -1.1980 nu         1 3YO      -0.762900
     29 C30          4.9630    -0.5000    -0.7000 cc         1 3YO       0.483900
     30 C31          5.0280    -1.1410     0.5490 cc         1 3YO      -0.233000
     31 C32          6.1840    -1.8850     0.4790 cd         1 3YO      -0.122300
     32 N33          6.7080    -1.6650    -0.7370 na         1 3YO       0.146800
     33 N34          5.9800    -0.8280    -1.4740 nd         1 3YO      -0.528800
     34 C35          7.8710    -2.3370    -1.2690 c6         1 3YO       0.091600
     35 C36          8.6610    -2.9310    -0.1170 c6         1 3YO       0.139800
     36 N37          7.7780    -3.6770     0.7600 n3         1 3YO      -0.714600
     37 C38          6.8740    -2.7800     1.4520 c6         1 3YO       0.224100
     38 C39          8.5090    -4.4990     1.6990 c3         1 3YO       0.151100
     39 H1          -0.8560    -0.3590    -0.7340 hc         1 3YO       0.050033
     40 H2           0.0530     0.1280     0.6880 hc         1 3YO       0.050033
     41 H3          -1.6700    -0.1860     0.8110 hc         1 3YO       0.050033
     42 H4           0.1860     4.7840    -0.2700 ha         1 3YO       0.129000
     43 H5          -2.1600     5.4100    -0.7460 ha         1 3YO       0.139000
     44 H6          -3.3820     0.3070    -1.1330 hn         1 3YO       0.162000
     45 H7          -6.5130    -0.0370     2.0770 ha         1 3YO       0.224000
     46 H8          -8.5560    -1.9260     2.3000 ha         1 3YO       0.121000
     47 H9          -9.8150    -3.6940     1.1240 ha         1 3YO       0.117000
     48 H10         -9.2900    -4.2580    -1.2220 ha         1 3YO       0.116000
     49 H11         -7.5010    -3.0720    -2.4360 ha         1 3YO       0.124000
     50 H12          1.3710     0.8940    -1.4200 ha         1 3YO       0.196000
     51 H27          3.5100     3.3890     1.9970 hn         1 3YO       0.352500
     52 H13          3.4970    -0.0000    -2.0290 hn         1 3YO       0.494000
     53 H14          4.3360    -1.0740     1.3720 ha         1 3YO       0.148000
     54 H15          7.5550    -3.1220    -1.9580 h1         1 3YO       0.071200
     55 H16          8.4790    -1.6210    -1.8210 h1         1 3YO       0.071200
     56 H17          9.4110    -3.6050    -0.5330 h1         1 3YO       0.049700
     57 H18          9.2040    -2.1360     0.4220 h1         1 3YO       0.049700
     58 H20          7.4040    -2.1580     2.1960 h1         1 3YO       0.055700
     59 H21          6.1330    -3.3600     2.0060 h1         1 3YO       0.055700
     60 H22          7.8120    -5.0720     2.3110 h1         1 3YO       0.036700
     61 H23          9.1420    -5.2060     1.1610 h1         1 3YO       0.036700
     62 H24          9.1510    -3.9160     2.3770 h1         1 3YO       0.036700
@<TRIPOS>BOND
     1     1     2 1   
     2     1    39 1   
     3     1    40 1   
     4     1    41 1   
     5     2     3 ar  
     6     2     7 ar  
     7     3     4 ar  
     8     3    21 1   
     9     4     5 ar  
    10     4    42 1   
    11     5     6 ar  
    12     5    43 1   
    13     6     7 ar  
    14     6    20 1   
    15     7     8 1   
    16     8     9 1   
    17     8    44 1   
    18     9    10 2   
    19     9    11 1   
    20    11    12 2   
    21    11    19 1   
    22    12    13 1   
    23    12    45 1   
    24    13    14 ar  
    25    13    18 ar  
    26    14    15 ar  
    27    14    46 1   
    28    15    16 ar  
    29    15    47 1   
    30    16    17 ar  
    31    16    48 1   
    32    17    18 ar  
    33    17    49 1   
    34    18    19 1   
    35    21    22 1   
    36    21    27 2   
    37    22    23 2   
    38    22    50 1   
    39    23    24 1   
    40    23    28 1   
    41    24    25 2   
    42    24    26 1   
    43    26    27 1   
    44    26    51 1   
    45    28    29 1   
    46    28    52 1   
    47    29    30 1   
    48    29    33 2   
    49    30    31 2   
    50    30    53 1   
    51    31    32 1   
    52    31    37 1   
    53    32    33 1   
    54    32    34 1   
    55    34    35 1   
    56    34    54 1   
    57    34    55 1   
    58    35    36 1   
    59    35    56 1   
    60    35    57 1   
    61    36    37 1   
    62    36    38 1   
    63    37    58 1   
    64    37    59 1   
    65    38    60 1   
    66    38    61 1   
    67    38    62 1   
@<TRIPOS>SUBSTRUCTURE
     1 3YO         1 TEMP              0 ****  ****    0 ROOT
