@<TRIPOS>MOLECULE
3YO
   62    67     1     0     0
SMALL
No Charge or Current Charge


@<TRIPOS>ATOM
      1 C1          -0.8510     0.4480     0.3930 c3         1 3YO      -0.054800
      2 C2          -1.1930     1.9280     0.1520 ca         1 3YO      -0.038300
      3 C3          -0.1900     2.9510     0.1440 ca         1 3YO      -0.122900
      4 C4          -0.6110     4.3030     0.1490 ca         1 3YO      -0.053000
      5 C5          -1.9630     4.6460     0.0460 ca         1 3YO      -0.153000
      6 C6          -2.9340     3.6470    -0.0320 ca         1 3YO       0.199000
      7 C7          -2.5660     2.2860     0.0480 ca         1 3YO      -0.097000
      8 N8          -3.5560     1.2610    -0.0050 ns         1 3YO      -0.162000
      9 C9          -4.7800     1.1520     0.6390 c          1 3YO       0.644300
     10 O10         -5.1780     1.9530     1.4790 o          1 3YO      -0.563100
     11 C11         -5.5470    -0.0500     0.2370 cc         1 3YO      -0.137600
     12 C12         -6.7880    -0.3860     0.7490 cd         1 3YO      -0.094200
     13 C13         -7.3450    -1.6040     0.2110 ca         1 3YO      -0.092800
     14 C14         -8.5760    -2.1950     0.5340 ca         1 3YO      -0.059000
     15 C15         -8.9350    -3.3950    -0.1110 ca         1 3YO      -0.117000
     16 C16         -8.0660    -3.9790    -1.0590 ca         1 3YO      -0.090000
     17 C17         -6.8340    -3.3660    -1.3670 ca         1 3YO      -0.087000
     18 C18         -6.4930    -2.1710    -0.7140 ca         1 3YO      -0.146000
     19 S19         -4.9840    -1.2480    -0.9680 ss         1 3YO       0.058400
     20 F20         -4.2220     4.0130    -0.2170 f          1 3YO      -0.161000
     21 C21          1.2720     2.6930     0.1950 cc         1 3YO       0.437200
     22 C22          1.8670     1.5490    -0.4570 cc         1 3YO      -0.365600
     23 C23          3.2170     1.2990    -0.3380 cd         1 3YO       0.103800
     24 C24          4.0980     2.2500     0.4490 c          1 3YO       0.526200
     25 O25          5.3140     2.1730     0.5840 o          1 3YO      -0.528000
     26 N26          3.3720     3.2880     1.0050 ns         1 3YO      -0.221900
     27 N28          2.0170     3.5380     0.9120 nd         1 3YO      -0.437300
     28 N29          3.7270     0.1950    -1.0060 nu         1 3YO      -0.762900
     29 C30          4.7460    -0.6650    -0.7220 cc         1 3YO       0.483900
     30 C31          5.2770    -0.8470     0.5610 cc         1 3YO      -0.233000
     31 C32          6.2180    -1.8210     0.4300 cd         1 3YO      -0.122300
     32 N33          6.1810    -2.1620    -0.9180 na         1 3YO       0.146800
     33 N34          5.2350    -1.4500    -1.6480 nd         1 3YO      -0.528800
     34 C35          7.0210    -3.2310    -1.4820 c6         1 3YO       0.091600
     35 C36          8.1740    -3.5820    -0.4950 c6         1 3YO       0.139800
     36 N37          7.7020    -3.7140     0.9230 n3         1 3YO      -0.714600
     37 C38          7.1420    -2.4320     1.4570 c6         1 3YO       0.224100
     38 C39          8.7270    -4.2910     1.8190 c3         1 3YO       0.151100
     39 H1          -0.7650    -0.1020    -0.5510 hc         1 3YO       0.050033
     40 H2           0.0780     0.3230     0.9590 hc         1 3YO       0.050033
     41 H3          -1.6140    -0.0570     0.9960 hc         1 3YO       0.050033
     42 H4           0.1200     5.1100     0.1750 ha         1 3YO       0.129000
     43 H5          -2.2590     5.6910    -0.0010 ha         1 3YO       0.139000
     44 H6          -3.3280     0.4870    -0.6150 hn         1 3YO       0.162000
     45 H7          -7.2980     0.2190     1.4950 ha         1 3YO       0.224000
     46 H8          -9.2390    -1.7380     1.2660 ha         1 3YO       0.121000
     47 H9          -9.8840    -3.8730     0.1220 ha         1 3YO       0.117000
     48 H10         -8.3480    -4.9060    -1.5550 ha         1 3YO       0.116000
     49 H11         -6.1610    -3.8120    -2.0960 ha         1 3YO       0.124000
     50 H12          1.2420     0.9110    -1.0660 ha         1 3YO       0.196000
     51 H27          3.9340     3.9420     1.5430 hn         1 3YO       0.352500
     52 H13          3.2450    -0.0610    -1.8640 hn         1 3YO       0.494000
     53 H14          4.9810    -0.3230     1.4610 ha         1 3YO       0.148000
     54 H15          6.3930    -4.1160    -1.6430 h1         1 3YO       0.071200
     55 H16          7.4300    -2.9140    -2.4500 h1         1 3YO       0.071200
     56 H17          8.6430    -4.5170    -0.8350 h1         1 3YO       0.049700
     57 H18          8.9440    -2.7990    -0.5600 h1         1 3YO       0.049700
     58 H20          7.9510    -1.7200     1.6790 h1         1 3YO       0.055700
     59 H21          6.5960    -2.6090     2.3960 h1         1 3YO       0.055700
     60 H22          8.3230    -4.4340     2.8300 h1         1 3YO       0.036700
     61 H23          9.0610    -5.2690     1.4480 h1         1 3YO       0.036700
     62 H24          9.6030    -3.6320     1.8890 h1         1 3YO       0.036700
@<TRIPOS>BOND
     1     1     2 1   
     2     1    39 1   
     3     1    40 1   
     4     1    41 1   
     5     2     3 ar  
     6     2     7 ar  
     7     3     4 ar  
     8     3    21 1   
     9     4     5 ar  
    10     4    42 1   
    11     5     6 ar  
    12     5    43 1   
    13     6     7 ar  
    14     6    20 1   
    15     7     8 1   
    16     8     9 1   
    17     8    44 1   
    18     9    10 2   
    19     9    11 1   
    20    11    12 2   
    21    11    19 1   
    22    12    13 1   
    23    12    45 1   
    24    13    14 ar  
    25    13    18 ar  
    26    14    15 ar  
    27    14    46 1   
    28    15    16 ar  
    29    15    47 1   
    30    16    17 ar  
    31    16    48 1   
    32    17    18 ar  
    33    17    49 1   
    34    18    19 1   
    35    21    22 1   
    36    21    27 2   
    37    22    23 2   
    38    22    50 1   
    39    23    24 1   
    40    23    28 1   
    41    24    25 2   
    42    24    26 1   
    43    26    27 1   
    44    26    51 1   
    45    28    29 1   
    46    28    52 1   
    47    29    30 1   
    48    29    33 2   
    49    30    31 2   
    50    30    53 1   
    51    31    32 1   
    52    31    37 1   
    53    32    33 1   
    54    32    34 1   
    55    34    35 1   
    56    34    54 1   
    57    34    55 1   
    58    35    36 1   
    59    35    56 1   
    60    35    57 1   
    61    36    37 1   
    62    36    38 1   
    63    37    58 1   
    64    37    59 1   
    65    38    60 1   
    66    38    61 1   
    67    38    62 1   
@<TRIPOS>SUBSTRUCTURE
     1 3YO         1 TEMP              0 ****  ****    0 ROOT
