@<TRIPOS>MOLECULE
3YP
   26    26     1     0     0
SMALL
abcg2


@<TRIPOS>ATOM
      1 CAF         -2.6320    -1.0720    -0.5350 c5         1 3YP      -0.077400
      2 CAC         -3.8040    -0.5780     0.3280 c5         1 3YP      -0.079400
      3 CAD         -3.6520     0.9420     0.3340 c5         1 3YP      -0.079400
      4 CAG         -2.1420     1.1270     0.4290 c5         1 3YP      -0.077400
      5 CAK         -1.5670     0.0550    -0.5120 c5         1 3YP      -0.067700
      6 CAH         -0.1870    -0.4460    -0.1040 c3         1 3YP      -0.061400
      7 CAE          0.8690     0.6560    -0.1090 c3         1 3YP      -0.158400
      8 CAJ          2.2240     0.1510     0.3250 c          1 3YP       0.600100
      9 OAA          2.3990    -0.5100     1.3350 o          1 3YP      -0.570100
     10 NAI          3.2190     0.4820    -0.5210 ns         1 3YP      -0.390400
     11 OAB          4.5170     0.2710    -0.1630 oh         1 3YP      -0.426100
     12 HAF1        -2.9600    -1.2620    -1.5580 hc         1 3YP       0.042200
     13 HAF2        -2.2290    -2.0150    -0.1600 hc         1 3YP       0.042200
     14 HAC1        -4.7740    -0.9140    -0.0410 hc         1 3YP       0.042700
     15 HAC2        -3.7030    -0.9520     1.3510 hc         1 3YP       0.042700
     16 HAD1        -4.0240     1.3640    -0.6040 hc         1 3YP       0.042700
     17 HAD2        -4.1960     1.4250     1.1480 hc         1 3YP       0.042700
     18 HAG1        -1.8140     0.9330     1.4580 hc         1 3YP       0.042200
     19 HAG2        -1.8150     2.1360     0.1720 hc         1 3YP       0.042200
     20 HAK         -1.4910     0.4860    -1.5160 hc         1 3YP       0.041700
     21 HAH1         0.1250    -1.2450    -0.7830 hc         1 3YP       0.054700
     22 HAH2        -0.2480    -0.8920     0.8930 hc         1 3YP       0.054700
     23 HAE1         0.5860     1.4510     0.5870 hc         1 3YP       0.059700
     24 HAE2         0.9180     1.1180    -1.0990 hc         1 3YP       0.059700
     25 HAI          3.0910     1.1510    -1.2660 hn         1 3YP       0.331500
     26 HAB          4.7840    -0.5520    -0.5930 ho         1 3YP       0.445000
@<TRIPOS>BOND
     1     1     2 1   
     2     1     5 1   
     3     1    12 1   
     4     1    13 1   
     5     2     3 1   
     6     2    14 1   
     7     2    15 1   
     8     3     4 1   
     9     3    16 1   
    10     3    17 1   
    11     4     5 1   
    12     4    18 1   
    13     4    19 1   
    14     5     6 1   
    15     5    20 1   
    16     6     7 1   
    17     6    21 1   
    18     6    22 1   
    19     7     8 1   
    20     7    23 1   
    21     7    24 1   
    22     8     9 2   
    23     8    10 1   
    24    10    11 1   
    25    10    25 1   
    26    11    26 1   
@<TRIPOS>SUBSTRUCTURE
     1 3YP         1 TEMP              0 ****  ****    0 ROOT
