@<TRIPOS>MOLECULE
3YP
   26    26     1     0     0
SMALL
No Charge or Current Charge


@<TRIPOS>ATOM
      1 CAF         -2.5590    -1.1780    -0.1240 c5         1 3YP      -0.077400
      2 CAC         -3.9180    -0.4510    -0.3200 c5         1 3YP      -0.079400
      3 CAD         -3.7120     0.9530     0.3360 c5         1 3YP      -0.079400
      4 CAG         -2.2210     0.9730     0.7840 c5         1 3YP      -0.077400
      5 CAK         -1.5570    -0.0010    -0.2240 c5         1 3YP      -0.067700
      6 CAH         -0.0930    -0.3880     0.1000 c3         1 3YP      -0.061400
      7 CAE          0.9110     0.7890     0.0250 c3         1 3YP      -0.158400
      8 CAJ          2.3490     0.3230     0.2820 c          1 3YP       0.600100
      9 OAA          2.7490     0.0180     1.3990 o          1 3YP      -0.570100
     10 NAI          3.1700     0.2980    -0.8400 ns         1 3YP      -0.390400
     11 OAB          4.6060     0.1500    -0.7130 oh         1 3YP      -0.426100
     12 HAF1        -2.3860    -1.9430    -0.8900 hc         1 3YP       0.042200
     13 HAF2        -2.5070    -1.6760     0.8520 hc         1 3YP       0.042200
     14 HAC1        -4.1560    -0.3470    -1.3850 hc         1 3YP       0.042700
     15 HAC2        -4.7450    -1.0050     0.1380 hc         1 3YP       0.042700
     16 HAD1        -3.9170     1.7510    -0.3880 hc         1 3YP       0.042700
     17 HAD2        -4.3870     1.1150     1.1840 hc         1 3YP       0.042700
     18 HAG1        -2.1110     0.6200     1.8170 hc         1 3YP       0.042200
     19 HAG2        -1.7950     1.9820     0.7400 hc         1 3YP       0.042200
     20 HAK         -1.5590     0.4230    -1.2360 hc         1 3YP       0.041700
     21 HAH1         0.2340    -1.1680    -0.6000 hc         1 3YP       0.054700
     22 HAH2        -0.0410    -0.8360     1.1010 hc         1 3YP       0.054700
     23 HAE1         0.6440     1.5260     0.7920 hc         1 3YP       0.059700
     24 HAE2         0.8370     1.2470    -0.9690 hc         1 3YP       0.059700
     25 HAI          2.8350     0.7050    -1.7120 hn         1 3YP       0.331500
     26 HAB          4.8230    -0.5700    -1.3520 ho         1 3YP       0.445000
@<TRIPOS>BOND
     1     1     2 1   
     2     1     5 1   
     3     1    12 1   
     4     1    13 1   
     5     2     3 1   
     6     2    14 1   
     7     2    15 1   
     8     3     4 1   
     9     3    16 1   
    10     3    17 1   
    11     4     5 1   
    12     4    18 1   
    13     4    19 1   
    14     5     6 1   
    15     5    20 1   
    16     6     7 1   
    17     6    21 1   
    18     6    22 1   
    19     7     8 1   
    20     7    23 1   
    21     7    24 1   
    22     8     9 2   
    23     8    10 1   
    24    10    11 1   
    25    10    25 1   
    26    11    26 1   
@<TRIPOS>SUBSTRUCTURE
     1 3YP         1 TEMP              0 ****  ****    0 ROOT
