@<TRIPOS>MOLECULE
3YQ
   25    25     1     0     0
SMALL
No Charge or Current Charge


@<TRIPOS>ATOM
      1 O5          -1.9300    -2.4810    -0.1230 o          1 3YQ      -0.949500
      2 P1          -1.2320    -1.4410     0.6920 p5         1 3YQ       1.332500
      3 O6          -2.0580    -1.0370     1.8690 o          1 3YQ      -0.949500
      4 O2           0.0170    -2.0750     1.2130 o          1 3YQ      -0.949500
      5 C6          -0.7160    -0.0210    -0.3720 c3         1 3YQ      -0.399500
      6 P2          -2.2700     0.9450    -0.5990 p5         1 3YQ       1.332500
      7 O3          -2.0490     1.7980    -1.8060 o          1 3YQ      -0.949500
      8 O1          -3.5030     0.1350    -0.8200 o          1 3YQ      -0.949500
      9 O4          -2.4370     1.8800     0.5540 o          1 3YQ      -0.949500
     10 N1           0.5580     0.7720    -0.0290 nu         1 3YQ      -0.642100
     11 C1           1.8900     0.4380    -0.2720 ca         1 3YQ       0.565900
     12 N2           2.1110    -0.4230    -1.2840 nb         1 3YQ      -0.686000
     13 C5           3.3820    -0.7480    -1.5650 ca         1 3YQ       0.382900
     14 C4           4.4760    -0.2210    -0.8630 ca         1 3YQ      -0.454000
     15 C3           4.2540     0.6830     0.1790 ca         1 3YQ      -0.037000
     16 C2           2.9290     1.0280     0.4850 ca         1 3YQ      -0.267300
     17 C7           2.6450     2.0180     1.6120 c3         1 3YQ      -0.007800
     18 H3          -0.5880    -0.4750    -1.3590 h1         1 3YQ       0.059700
     19 H6           0.4630     1.5070     0.6710 hn         1 3YQ       0.513000
     20 H7           3.5310    -1.4500    -2.3840 h4         1 3YQ      -0.065900
     21 H8           5.4860    -0.5130    -1.1310 ha         1 3YQ       0.030000
     22 H9           5.0900     1.1050     0.7320 ha         1 3YQ       0.017000
     23 H10          2.0090     1.5670     2.3830 hc         1 3YQ       0.008367
     24 H11          3.5680     2.3510     2.1020 hc         1 3YQ       0.008367
     25 H12          2.1360     2.9120     1.2320 hc         1 3YQ       0.008367
@<TRIPOS>BOND
     1     1     2 1   
     2     2     3 1   
     3     2     4 1   
     4     2     5 1   
     5     5     6 1   
     6     5    10 1   
     7     5    18 1   
     8     6     7 1   
     9     6     8 1   
    10     6     9 1   
    11    10    11 1   
    12    10    19 1   
    13    11    12 ar  
    14    11    16 ar  
    15    12    13 ar  
    16    13    14 ar  
    17    13    20 1   
    18    14    15 ar  
    19    14    21 1   
    20    15    16 ar  
    21    15    22 1   
    22    16    17 1   
    23    17    23 1   
    24    17    24 1   
    25    17    25 1   
@<TRIPOS>SUBSTRUCTURE
     1 3YQ         1 TEMP              0 ****  ****    0 ROOT
