@<TRIPOS>MOLECULE
3YQ
   25    25     1     0     0
SMALL
abcg2


@<TRIPOS>ATOM
      1 O5          -2.0170    -2.4920    -0.1430 o          1 3YQ      -0.949500
      2 P1          -1.1020    -1.5910     0.7060 p5         1 3YQ       1.332500
      3 O6          -1.7700    -1.0480     1.9770 o          1 3YQ      -0.949500
      4 O2           0.2570    -2.2520     1.0020 o          1 3YQ      -0.949500
      5 C6          -0.7000    -0.1330    -0.3930 c3         1 3YQ      -0.399500
      6 P2          -1.9950     1.1980    -0.6140 p5         1 3YQ       1.332500
      7 O3          -1.6180     1.9070    -1.9280 o          1 3YQ      -0.949500
      8 O1          -3.3680     0.5240    -0.6870 o          1 3YQ      -0.949500
      9 O4          -1.8060     2.1120     0.6150 o          1 3YQ      -0.949500
     10 N1           0.4760     0.5630     0.0880 nu         1 3YQ      -0.642100
     11 C1           1.7500     0.3090    -0.2070 ca         1 3YQ       0.565900
     12 N2           2.0350    -0.5670    -1.1810 nb         1 3YQ      -0.686000
     13 C5           3.3080    -0.7890    -1.4900 ca         1 3YQ       0.382900
     14 C4           4.3820    -0.1770    -0.8790 ca         1 3YQ      -0.454000
     15 C3           4.0870     0.7510     0.1280 ca         1 3YQ      -0.037000
     16 C2           2.7870     1.0170     0.4820 ca         1 3YQ      -0.267300
     17 C7           2.4410     2.0100     1.5480 c3         1 3YQ      -0.007800
     18 H3          -0.4560    -0.5410    -1.3780 h1         1 3YQ       0.059700
     19 H6           0.2630     1.2570     0.7880 hn         1 3YQ       0.513000
     20 H7           3.4780    -1.5080    -2.2880 h4         1 3YQ      -0.065900
     21 H8           5.3990    -0.3990    -1.1720 ha         1 3YQ       0.030000
     22 H9           4.8890     1.2720     0.6390 ha         1 3YQ       0.017000
     23 H10          1.8720     1.5530     2.3630 hc         1 3YQ       0.008367
     24 H11          3.3400     2.4480     1.9800 hc         1 3YQ       0.008367
     25 H12          1.8300     2.8310     1.1610 hc         1 3YQ       0.008367
@<TRIPOS>BOND
     1     1     2 1   
     2     2     3 1   
     3     2     4 1   
     4     2     5 1   
     5     5     6 1   
     6     5    10 1   
     7     5    18 1   
     8     6     7 1   
     9     6     8 1   
    10     6     9 1   
    11    10    11 1   
    12    10    19 1   
    13    11    12 ar  
    14    11    16 ar  
    15    12    13 ar  
    16    13    14 ar  
    17    13    20 1   
    18    14    15 ar  
    19    14    21 1   
    20    15    16 ar  
    21    15    22 1   
    22    16    17 1   
    23    17    23 1   
    24    17    24 1   
    25    17    25 1   
@<TRIPOS>SUBSTRUCTURE
     1 3YQ         1 TEMP              0 ****  ****    0 ROOT
