@<TRIPOS>MOLECULE
3YR
   44    47     1     0     0
SMALL
bcc


@<TRIPOS>ATOM
      1 O2          -0.5690     3.8090     0.5190 o          1 3YR      -0.586100
      2 C9           1.0010     2.0600     0.2890 cc         1 3YR       0.282800
      3 C8           2.1330     2.7960     0.4550 cd         1 3YR      -0.154400
      4 C10         -0.3720     2.6210     0.3310 c          1 3YR       0.607600
      5 C11         -2.7090     1.8450     0.0800 ca         1 3YR      -0.072700
      6 C12         -3.3910     3.0460     0.2350 ca         1 3YR       0.400200
      7 C7           2.4530     0.4220     0.0510 cd         1 3YR       0.481900
      8 C3           3.9090    -3.5500    -0.5600 ca         1 3YR      -0.060000
      9 C2           2.6000    -3.3520    -0.1490 ca         1 3YR      -0.192500
     10 C4           4.7560    -2.4710    -0.7600 ca         1 3YR      -0.192500
     11 C5           4.2620    -1.2040    -0.5430 ca         1 3YR       0.187900
     12 C6           2.9530    -0.9370    -0.1420 ca         1 3YR      -0.217500
     13 O1          -2.7770    -0.4460    -0.3090 os         1 3YR      -0.334900
     14 C1           2.1480    -2.0640     0.0530 ca         1 3YR       0.187900
     15 S            3.4950     1.7900     0.3150 ss         1 3YR      -0.085300
     16 N4           1.1950     0.7350     0.0660 nc         1 3YR      -0.634000
     17 F1           0.8940    -1.9040     0.4670 f          1 3YR      -0.122400
     18 N1          -1.3270     1.6830     0.1400 ns         1 3YR      -0.444100
     19 C15         -3.4720     0.6840    -0.1650 ca         1 3YR       0.131100
     20 C14         -4.8500     0.8000    -0.2440 ca         1 3YR      -0.319300
     21 C13         -5.4180     2.0550    -0.0760 ca         1 3YR       0.407200
     22 N2          -4.7170     3.1510     0.1590 nb         1 3YR      -0.668000
     23 C16         -3.4560    -1.6740    -0.5920 c5         1 3YR       0.144100
     24 C19         -4.2200    -2.2050     0.6410 c5         1 3YR       0.124800
     25 N3          -3.6470    -3.5210     0.8900 n7         1 3YR      -0.813200
     26 C18         -2.2600    -3.4580     0.4650 c5         1 3YR       0.151800
     27 C17         -2.3890    -2.7320    -0.8660 c5         1 3YR      -0.078400
     28 H1           2.2270     3.8560     0.6320 h4         1 3YR       0.201000
     29 H2          -2.8480     3.9580     0.4270 h4         1 3YR       0.053100
     30 H3           4.2730    -4.5540    -0.7220 ha         1 3YR       0.145000
     31 H4           1.9330    -4.1870     0.0210 ha         1 3YR       0.159500
     32 H5           5.7800    -2.6070    -1.0770 ha         1 3YR       0.159500
     33 H6          -0.9820     0.7410     0.0040 hn         1 3YR       0.363500
     34 H7          -5.4900    -0.0510    -0.4300 ha         1 3YR       0.144000
     35 H8          -6.4950     2.1640    -0.1340 h4         1 3YR       0.018100
     36 H9          -4.1110    -1.5200    -1.4540 h1         1 3YR       0.061700
     37 H10         -4.0830    -1.5070     1.4780 h1         1 3YR       0.050200
     38 H11         -5.2940    -2.2800     0.4570 h1         1 3YR       0.050200
     39 H12         -3.7430    -3.7890     1.8600 hn         1 3YR       0.364800
     40 H14         -1.6120    -2.8920     1.1490 h1         1 3YR       0.043700
     41 H15         -1.8350    -4.4580     0.3590 h1         1 3YR       0.043700
     42 H16         -2.7540    -3.4180    -1.6310 hc         1 3YR       0.067700
     43 H17         -1.4570    -2.2960    -1.2240 hc         1 3YR       0.067700
     44 F2           5.0810    -0.1620    -0.7290 f          1 3YR      -0.122400
@<TRIPOS>BOND
     1     1     4 2   
     2     2     3 2   
     3     2     4 1   
     4     2    16 1   
     5     3    15 1   
     6     3    28 1   
     7     4    18 1   
     8     5     6 ar  
     9     5    18 1   
    10     5    19 ar  
    11     6    22 ar  
    12     6    29 1   
    13     7    12 1   
    14     7    15 1   
    15     7    16 2   
    16     8     9 ar  
    17     8    10 ar  
    18     8    30 1   
    19     9    14 ar  
    20     9    31 1   
    21    10    11 ar  
    22    10    32 1   
    23    11    12 ar  
    24    11    44 1   
    25    12    14 ar  
    26    13    19 1   
    27    13    23 1   
    28    14    17 1   
    29    18    33 1   
    30    19    20 ar  
    31    20    21 ar  
    32    20    34 1   
    33    21    22 ar  
    34    21    35 1   
    35    23    24 1   
    36    23    27 1   
    37    23    36 1   
    38    24    25 1   
    39    24    37 1   
    40    24    38 1   
    41    25    26 1   
    42    25    39 1   
    43    26    27 1   
    44    26    40 1   
    45    26    41 1   
    46    27    42 1   
    47    27    43 1   
@<TRIPOS>SUBSTRUCTURE
     1 3YR         1 TEMP              0 ****  ****    0 ROOT
