@<TRIPOS>MOLECULE
3YR
   44    47     1     0     0
SMALL
No Charge or Current Charge


@<TRIPOS>ATOM
      1 O2          -0.6130     3.7340     0.8300 o          1 3YR      -0.586100
      2 C9           0.9600     1.9220     0.5140 cc         1 3YR       0.217500
      3 C8           2.0780     2.6310     0.8930 cd         1 3YR      -0.216000
      4 C10         -0.3980     2.5660     0.5110 c          1 3YR       0.540600
      5 C11         -2.8000     1.8130    -0.0430 ca         1 3YR      -0.100000
      6 C12         -3.5080     3.0040     0.2360 ca         1 3YR       0.334900
      7 C7           2.4820     0.3210     0.2560 cd         1 3YR       0.481900
      8 C3           3.9670    -3.6180    -0.6340 ca         1 3YR      -0.042000
      9 C2           2.8310    -3.4590     0.1750 ca         1 3YR      -0.174500
     10 C4           4.6140    -2.4810    -1.1440 ca         1 3YR      -0.174500
     11 C5           4.1320    -1.1980    -0.8420 ca         1 3YR       0.223000
     12 C6           3.0010    -1.0250    -0.0190 ca         1 3YR      -0.217500
     13 O1          -2.7970    -0.4660    -0.7590 os         1 3YR      -0.358100
     14 C1           2.3480    -2.1750     0.4740 ca         1 3YR       0.223000
     15 S            3.5200     1.6330     0.8140 ss         1 3YR       0.059600
     16 N4           1.1900     0.6050     0.1560 nc         1 3YR      -0.634000
     17 F1           1.2680    -2.0670     1.2800 f          1 3YR      -0.157500
     18 N1          -1.3880     1.6820     0.1060 ns         1 3YR      -0.118000
     19 C15         -3.5240     0.6880    -0.4800 ca         1 3YR       0.131100
     20 C14         -4.9230     0.8140    -0.6320 ca         1 3YR      -0.236000
     21 C13         -5.5350     2.0380    -0.3310 ca         1 3YR       0.341900
     22 N2          -4.8490     3.1180     0.0980 nb         1 3YR      -0.668000
     23 C16         -3.5880    -1.6910    -0.7370 c5         1 3YR       0.167300
     24 C19         -4.0660    -1.9900     0.7360 c5         1 3YR       0.124800
     25 N3          -3.3550    -3.2280     1.1600 n7         1 3YR      -0.868400
     26 C18         -2.0900    -3.1870     0.4020 c5         1 3YR       0.151800
     27 C17         -2.5920    -2.8530    -1.0200 c5         1 3YR      -0.078400
     28 H1           2.1370     3.6650     1.2120 h4         1 3YR       0.183000
     29 H2          -3.0040     3.9030     0.5830 h4         1 3YR       0.053100
     30 H3           4.3400    -4.6130    -0.8670 ha         1 3YR       0.127000
     31 H4           2.3220    -4.3320     0.5750 ha         1 3YR       0.141500
     32 H5           5.4880    -2.5930    -1.7810 ha         1 3YR       0.141500
     33 H6          -1.0360     0.7590    -0.1250 hn         1 3YR       0.197000
     34 H7          -5.5550     0.0080    -0.9850 ha         1 3YR       0.126000
     35 H8          -6.6120     2.1610    -0.4410 h4         1 3YR       0.018100
     36 H9          -4.3880    -1.6620    -1.4870 h1         1 3YR       0.061700
     37 H10         -3.8070    -1.1590     1.4070 h1         1 3YR       0.050200
     38 H11         -5.1560    -2.1250     0.7890 h1         1 3YR       0.050200
     39 H12         -3.1770    -3.2190     2.1740 hn         1 3YR       0.420000
     40 H14         -1.4240    -2.3990     0.7850 h1         1 3YR       0.043700
     41 H15         -1.5510    -4.1440     0.4440 h1         1 3YR       0.043700
     42 H16         -3.1060    -3.7110    -1.4690 hc         1 3YR       0.067700
     43 H17         -1.7800    -2.5660    -1.6970 hc         1 3YR       0.067700
     44 F2           4.7600    -0.1290    -1.3800 f          1 3YR      -0.157500
@<TRIPOS>BOND
     1     1     4 2   
     2     2     3 2   
     3     2     4 1   
     4     2    16 1   
     5     3    15 1   
     6     3    28 1   
     7     4    18 1   
     8     5     6 ar  
     9     5    18 1   
    10     5    19 ar  
    11     6    22 ar  
    12     6    29 1   
    13     7    12 1   
    14     7    15 1   
    15     7    16 2   
    16     8     9 ar  
    17     8    10 ar  
    18     8    30 1   
    19     9    14 ar  
    20     9    31 1   
    21    10    11 ar  
    22    10    32 1   
    23    11    12 ar  
    24    11    44 1   
    25    12    14 ar  
    26    13    19 1   
    27    13    23 1   
    28    14    17 1   
    29    18    33 1   
    30    19    20 ar  
    31    20    21 ar  
    32    20    34 1   
    33    21    22 ar  
    34    21    35 1   
    35    23    24 1   
    36    23    27 1   
    37    23    36 1   
    38    24    25 1   
    39    24    37 1   
    40    24    38 1   
    41    25    26 1   
    42    25    39 1   
    43    26    27 1   
    44    26    40 1   
    45    26    41 1   
    46    27    42 1   
    47    27    43 1   
@<TRIPOS>SUBSTRUCTURE
     1 3YR         1 TEMP              0 ****  ****    0 ROOT
