@<TRIPOS>MOLECULE
3YS
   43    46     1     0     0
SMALL
abcg2


@<TRIPOS>ATOM
      1 O1          -3.3820     2.5730    -0.3580 o          1 3YS      -0.584100
      2 C7           0.4130     0.6180     0.2140 ca         1 3YS      -0.119000
      3 C6           1.7250     1.0740     0.1950 ca         1 3YS      -0.074300
      4 C1           3.5400    -0.9920    -1.7550 c6         1 3YS       0.067600
      5 C5           2.8780     0.1150     0.4590 c5         1 3YS       0.208500
      6 C4           3.8150     0.5690     1.5980 c5         1 3YS       0.155600
      7 C3           5.2460    -0.1320    -0.0170 c5         1 3YS       0.150600
      8 C2           3.8860     0.0560    -0.7160 c5         1 3YS      -0.131700
      9 C15         -6.2430    -1.4300     0.0860 ca         1 3YS       0.142000
     10 C14         -4.9100    -1.7820     0.2260 ca         1 3YS       0.305900
     11 N3          -3.9540    -0.8750     0.1460 nb         1 3YS      -0.659000
     12 C16         -6.6060    -0.1190    -0.1380 ca         1 3YS      -0.125000
     13 C17         -5.5900     0.8200    -0.2190 ca         1 3YS      -0.073000
     14 C13         -4.2770     0.3960    -0.0700 ca         1 3YS       0.267500
     15 C12         -3.1580     1.3910    -0.1590 c          1 3YS       0.518600
     16 N2          -1.9380     0.8390    -0.0030 ns         1 3YS      -0.125000
     17 C8          -0.6810     1.4460    -0.0400 ca         1 3YS      -0.034000
     18 C9          -0.4650     2.7930    -0.3180 ca         1 3YS      -0.106000
     19 C10          0.8360     3.2710    -0.3430 ca         1 3YS      -0.128000
     20 C11          1.8950     2.4250    -0.0950 ca         1 3YS       0.139000
     21 F            3.1340     2.9560    -0.1540 f          1 3YS      -0.185000
     22 N            2.3360    -1.1500     0.8820 n2         1 3YS      -0.715900
     23 O            4.9900    -0.1710     1.3760 os         1 3YS      -0.436000
     24 S            3.5480    -2.6560    -1.0530 ss         1 3YS      -0.383200
     25 C            2.6120    -2.2900     0.4060 c2         1 3YS       0.715100
     26 H1           0.2440    -0.4270     0.4430 ha         1 3YS       0.134000
     27 H2           2.5650    -0.7880    -2.1990 h1         1 3YS       0.078700
     28 H3           4.2750    -1.0000    -2.5600 h1         1 3YS       0.078700
     29 H6           4.0120     1.6450     1.5670 h1         1 3YS       0.067700
     30 H7           3.4060     0.3180     2.5760 h1         1 3YS       0.067700
     31 H8           5.7440    -1.0610    -0.3010 h1         1 3YS       0.057200
     32 H9           5.9150     0.7000    -0.2660 h1         1 3YS       0.057200
     33 H10          3.8840     1.0090    -1.2440 hc         1 3YS       0.082700
     34 H11         -4.6220    -2.8120     0.4030 h4         1 3YS       0.042100
     35 H12         -7.6440     0.1620    -0.2500 ha         1 3YS       0.146000
     36 H13         -5.8200     1.8610    -0.3950 ha         1 3YS       0.155000
     37 H14         -1.9480    -0.1600     0.1620 hn         1 3YS       0.183000
     38 H15         -1.2790     3.4690    -0.5170 ha         1 3YS       0.152000
     39 H16          1.0260     4.3140    -0.5600 ha         1 3YS       0.135000
     40 N1           2.2200    -3.4280     1.0450 nv         1 3YS      -1.011200
     41 F1          -7.1760    -2.3780     0.1690 f          1 3YS      -0.160000
     42 H4           1.5880    -3.2910     1.8190 hn         1 3YS       0.472500
     43 H5           2.0180    -4.2430     0.4880 hn         1 3YS       0.472500
@<TRIPOS>BOND
     1     1    15 2   
     2     2     3 ar  
     3     2    17 ar  
     4     2    26 1   
     5     3     5 1   
     6     3    20 ar  
     7     4     8 1   
     8     4    24 1   
     9     4    27 1   
    10     4    28 1   
    11     5     6 1   
    12     5     8 1   
    13     5    22 1   
    14     6    23 1   
    15     6    29 1   
    16     6    30 1   
    17     7     8 1   
    18     7    23 1   
    19     7    31 1   
    20     7    32 1   
    21     8    33 1   
    22     9    10 ar  
    23     9    12 ar  
    24     9    41 1   
    25    10    11 ar  
    26    10    34 1   
    27    11    14 ar  
    28    12    13 ar  
    29    12    35 1   
    30    13    14 ar  
    31    13    36 1   
    32    14    15 1   
    33    15    16 1   
    34    16    17 1   
    35    16    37 1   
    36    17    18 ar  
    37    18    19 ar  
    38    18    38 1   
    39    19    20 ar  
    40    19    39 1   
    41    20    21 1   
    42    22    25 2   
    43    24    25 1   
    44    25    40 1   
    45    40    42 1   
    46    40    43 1   
@<TRIPOS>SUBSTRUCTURE
     1 3YS         1 TEMP              0 ****  ****    0 ROOT
