@<TRIPOS>MOLECULE
3YS
   43    46     1     0     0
SMALL
No Charge or Current Charge


@<TRIPOS>ATOM
      1 O1          -3.4140     2.5380    -0.5380 o          1 3YS      -0.584100
      2 C7           0.4850     0.6280     0.2480 ca         1 3YS      -0.119000
      3 C6           1.8180     1.1130     0.2670 ca         1 3YS      -0.074300
      4 C1           3.3980    -0.7980    -1.8320 c6         1 3YS       0.067600
      5 C5           2.9870     0.1280     0.5710 c5         1 3YS       0.208500
      6 C4           3.9780     0.7440     1.6410 c5         1 3YS       0.155600
      7 C3           5.2530    -0.3480    -0.0020 c5         1 3YS       0.150600
      8 C2           3.9220     0.0520    -0.6780 c5         1 3YS      -0.131700
      9 C15         -6.3360    -1.5590     0.1140 ca         1 3YS       0.142000
     10 C14         -4.9790    -1.8810     0.3130 ca         1 3YS       0.305900
     11 N3          -3.9770    -0.9700     0.2010 nb         1 3YS      -0.659000
     12 C16         -6.6810    -0.2400    -0.2160 ca         1 3YS      -0.125000
     13 C17         -5.6480     0.7100    -0.3330 ca         1 3YS      -0.073000
     14 C13         -4.3020     0.3220    -0.1200 ca         1 3YS       0.267500
     15 C12         -3.1870     1.3630    -0.2510 c          1 3YS       0.518600
     16 N2          -1.9090     0.8620    -0.0180 ns         1 3YS      -0.125000
     17 C8          -0.6170     1.4600    -0.0320 ca         1 3YS      -0.034000
     18 C9          -0.3930     2.8220    -0.3080 ca         1 3YS      -0.106000
     19 C10          0.9140     3.3280    -0.3070 ca         1 3YS      -0.128000
     20 C11          2.0060     2.4930    -0.0290 ca         1 3YS       0.139000
     21 F            3.2360     3.0520    -0.0640 f          1 3YS      -0.185000
     22 N            2.5780    -1.2080     1.1670 n2         1 3YS      -0.715900
     23 O            5.3200     0.5870     1.0950 os         1 3YS      -0.436000
     24 S            3.0490    -2.4920    -1.2740 ss         1 3YS      -0.383200
     25 C            2.5590    -2.2390     0.4110 c2         1 3YS       0.715100
     26 H1           0.2870    -0.4210     0.4540 ha         1 3YS       0.134000
     27 H2           2.4600    -0.3680    -2.2120 h1         1 3YS       0.078700
     28 H3           4.1200    -0.8370    -2.6610 h1         1 3YS       0.078700
     29 H6           3.8000     1.8020     1.8590 h1         1 3YS       0.067700
     30 H7           3.9230     0.2130     2.6020 h1         1 3YS       0.067700
     31 H8           5.2450    -1.3740     0.3920 h1         1 3YS       0.057200
     32 H9           6.1250    -0.2230    -0.6580 h1         1 3YS       0.057200
     33 H10          4.0660     1.0340    -1.1380 hc         1 3YS       0.082700
     34 H11         -4.6860    -2.8980     0.5700 h4         1 3YS       0.042100
     35 H12         -7.7200     0.0390    -0.3750 ha         1 3YS       0.146000
     36 H13         -5.8860     1.7400    -0.5880 ha         1 3YS       0.155000
     37 H14         -1.9050    -0.1260     0.2050 hn         1 3YS       0.183000
     38 H15         -1.2090     3.5030    -0.5300 ha         1 3YS       0.152000
     39 H16          1.0870     4.3780    -0.5280 ha         1 3YS       0.135000
     40 N1           2.1750    -3.4230     0.9150 nv         1 3YS      -1.011200
     41 F1          -7.2970    -2.5030     0.2370 f          1 3YS      -0.160000
     42 H4           1.6050    -3.3110     1.7430 hn         1 3YS       0.472500
     43 H5           1.8080    -4.0560     0.2180 hn         1 3YS       0.472500
@<TRIPOS>BOND
     1     1    15 2   
     2     2     3 ar  
     3     2    17 ar  
     4     2    26 1   
     5     3     5 1   
     6     3    20 ar  
     7     4     8 1   
     8     4    24 1   
     9     4    27 1   
    10     4    28 1   
    11     5     6 1   
    12     5     8 1   
    13     5    22 1   
    14     6    23 1   
    15     6    29 1   
    16     6    30 1   
    17     7     8 1   
    18     7    23 1   
    19     7    31 1   
    20     7    32 1   
    21     8    33 1   
    22     9    10 ar  
    23     9    12 ar  
    24     9    41 1   
    25    10    11 ar  
    26    10    34 1   
    27    11    14 ar  
    28    12    13 ar  
    29    12    35 1   
    30    13    14 ar  
    31    13    36 1   
    32    14    15 1   
    33    15    16 1   
    34    16    17 1   
    35    16    37 1   
    36    17    18 ar  
    37    18    19 ar  
    38    18    38 1   
    39    19    20 ar  
    40    19    39 1   
    41    20    21 1   
    42    22    25 2   
    43    24    25 1   
    44    25    40 1   
    45    40    42 1   
    46    40    43 1   
@<TRIPOS>SUBSTRUCTURE
     1 3YS         1 TEMP              0 ****  ****    0 ROOT
