@<TRIPOS>MOLECULE
3YT
   52    55     1     0     0
SMALL
No Charge or Current Charge


@<TRIPOS>ATOM
      1 C2           5.0260    -2.0560     0.8520 c6         1 3YT       0.145500
      2 C3           4.8380    -3.3000    -0.0620 c6         1 3YT      -0.075400
      3 C11          2.1760     2.7120    -0.5810 ca         1 3YT       0.204900
      4 C12          0.7820     2.6450    -0.3970 ca         1 3YT      -0.407600
      5 C13         -0.0780     3.8540    -0.5920 c          1 3YT       0.653700
      6 C16          0.2650     1.3890    -0.0360 ca         1 3YT       0.473900
      7 C18         -1.9250     0.1650     0.5570 ca         1 3YT       0.326000
      8 C19         -1.4840    -0.8920     1.3750 ca         1 3YT      -0.133000
      9 C20         -2.3690    -1.9150     1.7560 ca         1 3YT      -0.083000
     10 C21         -3.7060    -1.8820     1.3270 ca         1 3YT      -0.132000
     11 C22         -4.1670    -0.8210     0.5210 ca         1 3YT       0.045800
     12 C23         -3.2670     0.2000     0.1470 ca         1 3YT      -0.161000
     13 C26         -7.3310    -1.4000    -0.6620 cc         1 3YT       0.197400
     14 C27         -7.3970    -0.0460    -0.3260 cc         1 3YT       0.197400
     15 N1           4.2980    -2.2790     2.1350 n8         1 3YT      -1.012200
     16 C4           5.5480    -3.1240    -1.4250 c6         1 3YT      -0.074400
     17 C5           5.0500    -1.8520    -2.1500 c6         1 3YT      -0.075400
     18 C6           5.2610    -0.5930    -1.2700 c6         1 3YT      -0.086400
     19 C7           4.5930    -0.7180     0.1310 c6         1 3YT       0.256500
     20 N8           3.1190    -0.6530     0.0540 nu         1 3YT      -0.893100
     21 C9           2.3540     0.4880    -0.1060 ca         1 3YT       0.439900
     22 N10          2.9660     1.6360    -0.4340 nb         1 3YT      -0.290000
     23 N14          0.5320     5.0220    -0.8570 nt         1 3YT      -0.595000
     24 O15         -1.2960     3.8250    -0.5380 o          1 3YT      -0.653100
     25 N24         -5.5030    -0.7810     0.0970 na         1 3YT       0.345800
     26 N25         -6.1480    -1.9050    -0.4100 nd         1 3YT      -0.493300
     27 N28         -6.2580     0.3870     0.1590 nd         1 3YT      -0.493300
     28 N29          1.0470     0.3100     0.0980 nb         1 3YT      -0.341000
     29 H1           6.0950    -1.9730     1.1010 h1         1 3YT       0.027700
     30 H2           5.2310    -4.1950     0.4390 hc         1 3YT       0.047200
     31 H3           3.7680    -3.4850    -0.2310 hc         1 3YT       0.047200
     32 H4           2.6840     3.6330    -0.8600 h4         1 3YT       0.008100
     33 H5          -0.4630    -0.9210     1.7390 ha         1 3YT       0.151000
     34 H6          -2.0210    -2.7290     2.3890 ha         1 3YT       0.117000
     35 H7          -4.3860    -2.6760     1.6280 ha         1 3YT       0.142000
     36 H8          -3.6160     1.0180    -0.4760 ha         1 3YT       0.149000
     37 H10         -8.2360     0.6290    -0.4210 h4         1 3YT       0.052600
     38 H11          4.7270    -3.0740     2.6240 hn         1 3YT       0.402500
     39 H12          4.4810    -1.4870     2.7630 hn         1 3YT       0.402500
     40 H14          6.6350    -3.0660    -1.2750 hc         1 3YT       0.041200
     41 H15          5.3660    -4.0050    -2.0560 hc         1 3YT       0.041200
     42 H16          5.5840    -1.7330    -3.1020 hc         1 3YT       0.046700
     43 H17          3.9860    -1.9570    -2.4020 hc         1 3YT       0.046700
     44 H18          6.3390    -0.4320    -1.1320 hc         1 3YT       0.056200
     45 H19          4.8930     0.2960    -1.7980 hc         1 3YT       0.056200
     46 H20          4.9520     0.1160     0.7550 h1         1 3YT       0.057700
     47 H21          2.6370    -1.4030     0.5460 hn         1 3YT       0.523000
     48 H22          1.5370     5.0700    -0.9080 hn         1 3YT       0.315000
     49 H23         -0.0310     5.8470    -0.9970 hn         1 3YT       0.315000
     50 N17         -1.0920     1.2150     0.1620 nu         1 3YT      -0.934900
     51 H9          -8.1090    -2.0250    -1.0810 h4         1 3YT       0.052600
     52 H24         -1.5900     2.0730    -0.1020 hn         1 3YT       0.551000
@<TRIPOS>BOND
     1     1     2 1   
     2     1    15 1   
     3     1    19 1   
     4     1    29 1   
     5     2    16 1   
     6     2    30 1   
     7     2    31 1   
     8     3     4 ar  
     9     3    22 ar  
    10     3    32 1   
    11     4     5 1   
    12     4     6 ar  
    13     5    23 1   
    14     5    24 2   
    15     6    28 ar  
    16     6    50 1   
    17     7     8 ar  
    18     7    12 ar  
    19     7    50 1   
    20     8     9 ar  
    21     8    33 1   
    22     9    10 ar  
    23     9    34 1   
    24    10    11 ar  
    25    10    35 1   
    26    11    12 ar  
    27    11    25 1   
    28    12    36 1   
    29    13    14 1   
    30    13    26 2   
    31    13    51 1   
    32    14    27 2   
    33    14    37 1   
    34    15    38 1   
    35    15    39 1   
    36    16    17 1   
    37    16    40 1   
    38    16    41 1   
    39    17    18 1   
    40    17    42 1   
    41    17    43 1   
    42    18    19 1   
    43    18    44 1   
    44    18    45 1   
    45    19    20 1   
    46    19    46 1   
    47    20    21 1   
    48    20    47 1   
    49    21    22 ar  
    50    21    28 ar  
    51    23    48 1   
    52    23    49 1   
    53    25    26 1   
    54    25    27 1   
    55    50    52 1   
@<TRIPOS>SUBSTRUCTURE
     1 3YT         1 TEMP              0 ****  ****    0 ROOT
