@<TRIPOS>MOLECULE
3YT
   52    55     1     0     0
SMALL
abcg2


@<TRIPOS>ATOM
      1 C2           5.0930    -1.8910     0.9470 c6         1 3YT       0.145500
      2 C3           4.8090    -3.1580     0.1420 c6         1 3YT      -0.075400
      3 C11          2.1640     2.5990    -0.5890 ca         1 3YT       0.204900
      4 C12          0.7830     2.5620    -0.4590 ca         1 3YT      -0.407600
      5 C13         -0.0720     3.7420    -0.6820 c          1 3YT       0.653700
      6 C16          0.2590     1.2740    -0.1210 ca         1 3YT       0.473900
      7 C18         -1.8490    -0.0100     0.2600 ca         1 3YT       0.326000
      8 C19         -1.3610    -1.2330     0.7280 ca         1 3YT      -0.133000
      9 C20         -2.2540    -2.2600     1.0000 ca         1 3YT      -0.083000
     10 C21         -3.6190    -2.1170     0.8230 ca         1 3YT      -0.132000
     11 C22         -4.0930    -0.8960     0.3580 ca         1 3YT       0.045800
     12 C23         -3.2270     0.1470     0.0790 ca         1 3YT      -0.161000
     13 C26         -7.5180    -1.1150     0.1070 cc         1 3YT       0.197400
     14 C27         -7.2850     0.1930    -0.3320 cc         1 3YT       0.197400
     15 N1           4.4610    -1.9920     2.2530 n8         1 3YT      -1.012200
     16 C4           5.3760    -3.0760    -1.2710 c6         1 3YT      -0.074400
     17 C5           4.8700    -1.8320    -1.9910 c6         1 3YT      -0.075400
     18 C6           5.1790    -0.5740    -1.1910 c6         1 3YT      -0.086400
     19 C7           4.5990    -0.6300     0.2240 c6         1 3YT       0.256500
     20 N8           3.1490    -0.6290     0.2260 nu         1 3YT      -0.893100
     21 C9           2.3800     0.4340    -0.0230 ca         1 3YT       0.439900
     22 N10          2.9740     1.5780    -0.3910 nb         1 3YT      -0.290000
     23 N14          0.5260     4.9410    -0.7420 nt         1 3YT      -0.595000
     24 O15         -1.2970     3.6410    -0.8160 o          1 3YT      -0.653100
     25 N24         -5.4780    -0.7110     0.1620 na         1 3YT       0.345800
     26 N25         -6.3550    -1.6580     0.4100 nd         1 3YT      -0.493300
     27 N28         -5.9870     0.4160    -0.2840 nd         1 3YT      -0.493300
     28 N29          1.0610     0.2540     0.1100 nb         1 3YT      -0.341000
     29 H1           6.1870    -1.7790     1.0120 h1         1 3YT       0.027700
     30 H2           5.2350    -4.0160     0.6710 hc         1 3YT       0.047200
     31 H3           3.7290    -3.3360     0.0970 hc         1 3YT       0.047200
     32 H4           2.6580     3.5160    -0.8940 h4         1 3YT       0.008100
     33 H5          -0.3060    -1.3840     0.8740 ha         1 3YT       0.151000
     34 H6          -1.8680    -3.2030     1.3630 ha         1 3YT       0.117000
     35 H7          -4.2940    -2.9310     1.0410 ha         1 3YT       0.142000
     36 H8          -3.6180     1.0870    -0.2860 ha         1 3YT       0.149000
     37 H10         -7.9800     0.9470    -0.6630 h4         1 3YT       0.052600
     38 H11          4.8050    -2.8150     2.7320 hn         1 3YT       0.402500
     39 H12          4.7290    -1.2020     2.8280 hn         1 3YT       0.402500
     40 H14          6.4700    -3.0510    -1.2280 hc         1 3YT       0.041200
     41 H15          5.1090    -3.9770    -1.8280 hc         1 3YT       0.041200
     42 H16          5.3170    -1.7570    -2.9850 hc         1 3YT       0.046700
     43 H17          3.7890    -1.9120    -2.1440 hc         1 3YT       0.046700
     44 H18          6.2640    -0.4500    -1.1040 hc         1 3YT       0.056200
     45 H19          4.8080     0.3160    -1.7000 hc         1 3YT       0.056200
     46 H20          4.9540     0.2460     0.7790 h1         1 3YT       0.057700
     47 H21          2.6880    -1.4070     0.6750 hn         1 3YT       0.523000
     48 H22          1.4840     5.0960    -0.4850 hn         1 3YT       0.315000
     49 H23         -0.0410     5.7610    -0.8830 hn         1 3YT       0.315000
     50 N17         -1.0800     1.1080    -0.0390 nu         1 3YT      -0.934900
     51 H9          -8.4430    -1.6580     0.2100 h4         1 3YT       0.052600
     52 H24         -1.5890     1.9480    -0.3120 hn         1 3YT       0.551000
@<TRIPOS>BOND
     1     1     2 1   
     2     1    15 1   
     3     1    19 1   
     4     1    29 1   
     5     2    16 1   
     6     2    30 1   
     7     2    31 1   
     8     3     4 ar  
     9     3    22 ar  
    10     3    32 1   
    11     4     5 1   
    12     4     6 ar  
    13     5    23 1   
    14     5    24 2   
    15     6    28 ar  
    16     6    50 1   
    17     7     8 ar  
    18     7    12 ar  
    19     7    50 1   
    20     8     9 ar  
    21     8    33 1   
    22     9    10 ar  
    23     9    34 1   
    24    10    11 ar  
    25    10    35 1   
    26    11    12 ar  
    27    11    25 1   
    28    12    36 1   
    29    13    14 1   
    30    13    26 2   
    31    13    51 1   
    32    14    27 2   
    33    14    37 1   
    34    15    38 1   
    35    15    39 1   
    36    16    17 1   
    37    16    40 1   
    38    16    41 1   
    39    17    18 1   
    40    17    42 1   
    41    17    43 1   
    42    18    19 1   
    43    18    44 1   
    44    18    45 1   
    45    19    20 1   
    46    19    46 1   
    47    20    21 1   
    48    20    47 1   
    49    21    22 ar  
    50    21    28 ar  
    51    23    48 1   
    52    23    49 1   
    53    25    26 1   
    54    25    27 1   
    55    50    52 1   
@<TRIPOS>SUBSTRUCTURE
     1 3YT         1 TEMP              0 ****  ****    0 ROOT
