@<TRIPOS>MOLECULE
3YU
   63    68     1     0     0
SMALL
abcg2


@<TRIPOS>ATOM
      1 N14         -3.4270     0.0540     0.1630 nc         1 3YU      -0.672000
      2 C13         -4.2560    -1.0100     0.4040 cc         1 3YU       0.293500
      3 C18         -8.4600    -0.8230    -0.1790 ca         1 3YU      -0.260900
      4 C17         -7.6360     0.2610    -0.5220 ca         1 3YU      -0.010200
      5 C16         -6.2490     0.2250    -0.3430 ca         1 3YU      -0.117000
      6 C15         -5.6990    -0.9290     0.1880 ca         1 3YU      -0.059500
      7 C19         -7.8910    -1.9860     0.3520 ca         1 3YU      -0.029000
      8 C20         -6.5290    -2.0280     0.5290 ca         1 3YU      -0.156000
      9 C21          7.2160    -0.8580    -0.7350 ca         1 3YU      -0.090000
     10 C22          7.2520    -2.2140    -1.0090 ca         1 3YU      -0.089000
     11 C23          6.1410    -2.9840    -0.7020 ca         1 3YU       0.129000
     12 C24          5.0080    -2.4250    -0.1390 ca         1 3YU      -0.090000
     13 C12         -3.5130    -2.0740     0.8520 cd         1 3YU      -0.204000
     14 C33          6.1160     2.1020    -0.8450 cc         1 3YU       0.392400
     15 N1           0.1850    -0.3400     0.2590 ns         1 3YU      -0.511900
     16 C2          -0.9820     0.4950     0.4210 c3         1 3YU       0.080400
     17 C3          -2.2200    -0.3470     0.4610 cd         1 3YU       0.388800
     18 C4          -1.0560     1.5650    -0.6820 c3         1 3YU      -0.043100
     19 C5           0.1800     2.4180    -0.6760 ca         1 3YU      -0.092300
     20 C6           0.2910     3.4990     0.1940 ca         1 3YU      -0.103500
     21 C7           1.4660     4.2320     0.2710 ca         1 3YU      -0.109000
     22 C8           2.5560     3.8900    -0.5210 ca         1 3YU      -0.100000
     23 C9           2.4510     2.8230    -1.4010 ca         1 3YU      -0.109000
     24 C10          1.2710     2.0960    -1.4790 ca         1 3YU      -0.103500
     25 N11         -2.2260    -1.6290     0.8800 na         1 3YU      -0.284500
     26 C25          4.9540    -1.0580     0.1280 ca         1 3YU      -0.027800
     27 C26          6.0840    -0.2930    -0.1730 ca         1 3YU       0.004800
     28 N27          6.0740     1.1080     0.0470 na         1 3YU       0.001500
     29 C29          3.7430    -0.4520     0.6850 ce         1 3YU      -0.098200
     30 C30          2.5080    -0.8370     0.3660 cf         1 3YU      -0.280200
     31 O32          1.4170     0.5850     1.9270 o          1 3YU      -0.569100
     32 N34          6.1120     3.2320    -0.1910 nd         1 3YU      -0.383000
     33 N35          6.0670     2.9080     1.1030 nd         1 3YU      -0.036000
     34 N36          6.0480     1.6460     1.2630 nc         1 3YU      -0.187800
     35 N37         -8.4530     1.2140    -1.0100 na         1 3YU      -0.069400
     36 N38         -9.7520     0.8330    -0.9940 nc         1 3YU      -0.581100
     37 C39         -9.7790    -0.3820    -0.5070 cd         1 3YU       0.547800
     38 N40        -10.9360    -1.1230    -0.4060 nv         1 3YU      -0.961200
     39 H52         -5.6240     1.0670    -0.6070 ha         1 3YU       0.140000
     40 H53         -8.5020    -2.8370     0.6240 ha         1 3YU       0.114000
     41 H54         -6.0840    -2.9230     0.9450 ha         1 3YU       0.107000
     42 H55          8.0750    -0.2400    -0.9610 ha         1 3YU       0.138000
     43 H56          8.1360    -2.6590    -1.4430 ha         1 3YU       0.143000
     44 H57          4.1620    -3.0510     0.1100 ha         1 3YU       0.141000
     45 H51         -3.7720    -3.0790     1.1340 h4         1 3YU       0.161000
     46 H60          6.1430     1.9630    -1.9140 h5         1 3YU       0.078100
     47 H41          0.2450    -0.8600    -0.6040 hn         1 3YU       0.306500
     48 H42         -0.8800     1.0000     1.3860 h1         1 3YU       0.106700
     49 H43         -1.1780     1.0700    -1.6480 hc         1 3YU       0.068200
     50 H44         -1.9490     2.1700    -0.5190 hc         1 3YU       0.068200
     51 H45         -0.5490     3.7670     0.8260 ha         1 3YU       0.107500
     52 H46          1.5340     5.0690     0.9550 ha         1 3YU       0.109500
     53 H47          3.4780     4.4520    -0.4530 ha         1 3YU       0.127000
     54 H48          3.2890     2.5540    -2.0320 ha         1 3YU       0.109500
     55 H49          1.2000     1.2640    -2.1690 ha         1 3YU       0.107500
     56 H50         -1.4190    -2.1680     1.1580 hn         1 3YU       0.360000
     57 H58          3.8620     0.3760     1.3740 ha         1 3YU       0.227000
     58 H59          2.3300    -1.6180    -0.3650 ha         1 3YU       0.179000
     59 H61         -8.2090     2.1260    -1.3530 hn         1 3YU       0.377000
     60 H63        -10.9630    -1.7270     0.4020 hn         1 3YU       0.444500
     61 H62        -11.7770    -0.5680    -0.4540 hn         1 3YU       0.444500
     62 C31          1.3370    -0.1270     0.9400 c          1 3YU       0.601300
     63 CL1          6.1730    -4.6810    -1.0210 cl         1 3YU      -0.176000
@<TRIPOS>BOND
     1     1     2 1   
     2     1    17 2   
     3     2     6 1   
     4     2    13 2   
     5     3     4 ar  
     6     3     7 ar  
     7     3    37 1   
     8     4     5 ar  
     9     4    35 1   
    10     5     6 ar  
    11     5    39 1   
    12     6     8 ar  
    13     7     8 ar  
    14     7    40 1   
    15     8    41 1   
    16     9    10 ar  
    17     9    27 ar  
    18     9    42 1   
    19    10    11 ar  
    20    10    43 1   
    21    11    12 ar  
    22    11    63 1   
    23    12    26 ar  
    24    12    44 1   
    25    13    25 1   
    26    13    45 1   
    27    14    28 1   
    28    14    32 2   
    29    14    46 1   
    30    15    16 1   
    31    15    47 1   
    32    15    62 1   
    33    16    17 1   
    34    16    18 1   
    35    16    48 1   
    36    17    25 1   
    37    18    19 1   
    38    18    49 1   
    39    18    50 1   
    40    19    20 ar  
    41    19    24 ar  
    42    20    21 ar  
    43    20    51 1   
    44    21    22 ar  
    45    21    52 1   
    46    22    23 ar  
    47    22    53 1   
    48    23    24 ar  
    49    23    54 1   
    50    24    55 1   
    51    25    56 1   
    52    26    27 ar  
    53    26    29 1   
    54    27    28 1   
    55    28    34 1   
    56    29    30 2   
    57    29    57 1   
    58    30    58 1   
    59    30    62 1   
    60    31    62 2   
    61    32    33 1   
    62    33    34 2   
    63    35    36 1   
    64    35    59 1   
    65    36    37 2   
    66    37    38 1   
    67    38    60 1   
    68    38    61 1   
@<TRIPOS>SUBSTRUCTURE
     1 3YU         1 TEMP              0 ****  ****    0 ROOT
