@<TRIPOS>MOLECULE
3YU
   63    68     1     0     0
SMALL
No Charge or Current Charge


@<TRIPOS>ATOM
      1 N14         -3.4990     0.1410     0.0590 nc         1 3YU      -0.672000
      2 C13         -4.3010    -0.9640     0.1000 cc         1 3YU       0.293500
      3 C18         -8.5700    -0.8360     0.1030 ca         1 3YU      -0.260900
      4 C17         -7.8540     0.2930    -0.1250 ca         1 3YU      -0.010200
      5 C16         -6.4540     0.2910    -0.1360 ca         1 3YU      -0.117000
      6 C15         -5.7760    -0.9370     0.0910 ca         1 3YU      -0.059500
      7 C19         -7.9590    -2.0710     0.3430 ca         1 3YU      -0.029000
      8 C20         -6.5480    -2.1110     0.3380 ca         1 3YU      -0.156000
      9 C21          7.5070    -0.9470    -0.0920 ca         1 3YU      -0.090000
     10 C22          7.5310    -2.2910    -0.5010 ca         1 3YU      -0.089000
     11 C23          6.3460    -3.0410    -0.5040 ca         1 3YU       0.129000
     12 C24          5.1390    -2.4540    -0.0920 ca         1 3YU      -0.090000
     13 C12         -3.5830    -2.1300     0.1390 cd         1 3YU      -0.204000
     14 C33          5.5580     1.9810     0.0790 cc         1 3YU       0.392400
     15 N1           0.2410    -0.2230    -0.0680 ns         1 3YU      -0.511900
     16 C2          -1.0140     0.5500     0.0580 c3         1 3YU       0.080400
     17 C3          -2.2590    -0.3280     0.0680 cd         1 3YU       0.388800
     18 C4          -1.0630     1.6540    -1.0320 c3         1 3YU      -0.043100
     19 C5           0.2110     2.4950    -1.0880 ca         1 3YU      -0.092300
     20 C6           0.4540     3.4810    -0.1110 ca         1 3YU      -0.103500
     21 C7           1.6410     4.2330    -0.1410 ca         1 3YU      -0.109000
     22 C8           2.5940     4.0050    -1.1480 ca         1 3YU      -0.100000
     23 C9           2.3570     3.0250    -2.1270 ca         1 3YU      -0.109000
     24 C10          1.1700     2.2730    -2.0980 ca         1 3YU      -0.103500
     25 N11         -2.2590    -1.7130     0.1280 na         1 3YU      -0.284500
     26 C25          5.1050    -1.1100     0.3290 ca         1 3YU      -0.027800
     27 C26          6.2990    -0.3460     0.3200 ca         1 3YU       0.004800
     28 N27          6.2990     1.0040     0.6780 na         1 3YU       0.001500
     29 C29          3.8150    -0.5230     0.7840 ce         1 3YU      -0.098200
     30 C30          2.5860    -0.6820     0.2140 cf         1 3YU      -0.280200
     31 O32          1.3410     0.6690     1.7180 o          1 3YU      -0.569100
     32 N34          5.8420     3.0900     0.7380 nd         1 3YU      -0.383000
     33 N35          6.7510     2.7450     1.7240 nd         1 3YU      -0.036000
     34 N36          7.0400     1.4680     1.7050 nc         1 3YU      -0.187800
     35 N37         -8.7440     1.3370    -0.3190 na         1 3YU      -0.069400
     36 N38        -10.0730     0.8730    -0.2120 nc         1 3YU      -0.581100
     37 C39         -9.9420    -0.4240     0.0370 cd         1 3YU       0.547800
     38 N40        -11.0520    -1.1570     0.2080 nv         1 3YU      -0.961200
     39 H52         -5.9060     1.2120    -0.3190 ha         1 3YU       0.140000
     40 H53         -8.5470    -2.9680     0.5290 ha         1 3YU       0.114000
     41 H54         -6.0620    -3.0630     0.5340 ha         1 3YU       0.107000
     42 H55          8.4280    -0.3680    -0.1040 ha         1 3YU       0.138000
     43 H56          8.4640    -2.7490    -0.8200 ha         1 3YU       0.143000
     44 H57          4.2310    -3.0510    -0.0880 ha         1 3YU       0.141000
     45 H51         -3.8880    -3.1690     0.1690 h4         1 3YU       0.161000
     46 H60          4.8890     1.8330    -0.7590 h5         1 3YU       0.078100
     47 H41          0.3710    -0.7910    -0.8970 hn         1 3YU       0.306500
     48 H42         -1.0050     1.0600     1.0300 h1         1 3YU       0.106700
     49 H43         -1.2470     1.1820    -2.0050 hc         1 3YU       0.068200
     50 H44         -1.9260     2.3050    -0.8450 hc         1 3YU       0.068200
     51 H45         -0.2740     3.6580     0.6770 ha         1 3YU       0.107500
     52 H46          1.8240     4.9900     0.6180 ha         1 3YU       0.109500
     53 H47          3.5130     4.5880    -1.1700 ha         1 3YU       0.127000
     54 H48          3.0940     2.8470    -2.9070 ha         1 3YU       0.109500
     55 H49          1.0010     1.5110    -2.8550 ha         1 3YU       0.107500
     56 H50         -1.4310    -2.2950     0.1650 hn         1 3YU       0.360000
     57 H58          3.8980     0.1220     1.6640 ha         1 3YU       0.227000
     58 H59          2.4900    -1.2970    -0.6790 ha         1 3YU       0.179000
     59 H61         -8.5110     2.3120    -0.5110 hn         1 3YU       0.377000
     60 H63        -10.9580    -2.0600     0.6580 hn         1 3YU       0.444500
     61 H62        -11.9200    -0.6550     0.3510 hn         1 3YU       0.444500
     62 C31          1.3570    -0.0180     0.7090 c          1 3YU       0.601300
     63 Cl1          6.3720    -4.7230    -1.0190 cl         1 3YU      -0.176000
@<TRIPOS>BOND
     1     1     2 1   
     2     1    17 2   
     3     2     6 1   
     4     2    13 2   
     5     3     4 ar  
     6     3     7 ar  
     7     3    37 1   
     8     4     5 ar  
     9     4    35 1   
    10     5     6 ar  
    11     5    39 1   
    12     6     8 ar  
    13     7     8 ar  
    14     7    40 1   
    15     8    41 1   
    16     9    10 ar  
    17     9    27 ar  
    18     9    42 1   
    19    10    11 ar  
    20    10    43 1   
    21    11    12 ar  
    22    11    63 1   
    23    12    26 ar  
    24    12    44 1   
    25    13    25 1   
    26    13    45 1   
    27    14    28 1   
    28    14    32 2   
    29    14    46 1   
    30    15    16 1   
    31    15    47 1   
    32    15    62 1   
    33    16    17 1   
    34    16    18 1   
    35    16    48 1   
    36    17    25 1   
    37    18    19 1   
    38    18    49 1   
    39    18    50 1   
    40    19    20 ar  
    41    19    24 ar  
    42    20    21 ar  
    43    20    51 1   
    44    21    22 ar  
    45    21    52 1   
    46    22    23 ar  
    47    22    53 1   
    48    23    24 ar  
    49    23    54 1   
    50    24    55 1   
    51    25    56 1   
    52    26    27 ar  
    53    26    29 1   
    54    27    28 1   
    55    28    34 1   
    56    29    30 2   
    57    29    57 1   
    58    30    58 1   
    59    30    62 1   
    60    31    62 2   
    61    32    33 1   
    62    33    34 2   
    63    35    36 1   
    64    35    59 1   
    65    36    37 2   
    66    37    38 1   
    67    38    60 1   
    68    38    61 1   
@<TRIPOS>SUBSTRUCTURE
     1 3YU         1 TEMP              0 ****  ****    0 ROOT
