@<TRIPOS>MOLECULE
3YV
   51    54     1     0     0
SMALL
abcg2


@<TRIPOS>ATOM
      1 C4          -5.2730    -0.3130     0.9600 c6         1 3YV      -0.086400
      2 C5          -4.5640    -0.6140    -0.3610 c6         1 3YV       0.254500
      3 C6          -2.3090     0.3540    -0.0120 ca         1 3YV       0.377900
      4 N1          -3.1180    -0.6820    -0.2300 nu         1 3YV      -0.886100
      5 C7          -0.7510     2.4010     0.4900 ca         1 3YV       0.054500
      6 C8           0.0540     3.6110     0.8050 c          1 3YV       0.540600
      7 N2          -2.8680     1.5520     0.2540 nb         1 3YV      -0.206000
      8 C9          -0.1850     1.1250     0.1680 ca         1 3YV       0.433900
      9 C10          1.9390    -0.1220    -0.2030 ca         1 3YV       0.317000
     10 C11          1.4590    -1.3610    -0.6330 ca         1 3YV      -0.131000
     11 C12          2.3650    -2.3680    -0.9340 ca         1 3YV      -0.083000
     12 N3          -2.0560     2.5340     0.5010 nb         1 3YV      -0.242000
     13 C13          3.7320    -2.1870    -0.8210 ca         1 3YV      -0.128000
     14 C14          4.1950    -0.9490    -0.3900 ca         1 3YV       0.046800
     15 C15          3.3170     0.0740    -0.0830 ca         1 3YV      -0.156000
     16 N4          -0.6410     4.7160     1.0670 nt         1 3YV      -0.573000
     17 O            1.2870     3.5710     0.8180 o          1 3YV      -0.653100
     18 N9          -0.9940     0.1180    -0.0770 nb         1 3YV      -0.316000
     19 C3          -5.1190    -1.4350     1.9780 c6         1 3YV      -0.074400
     20 C2          -5.6160    -2.7570     1.4080 c6         1 3YV      -0.074400
     21 C1          -4.9110    -3.0840     0.0970 c6         1 3YV      -0.075400
     22 C           -5.0530    -1.9570    -0.9240 c6         1 3YV       0.145500
     23 N           -4.2990    -2.2880    -2.1240 n8         1 3YV      -1.017200
     24 N5           1.1510     0.9800     0.1170 nu         1 3YV      -0.921900
     25 N6           5.5830    -0.7270    -0.2610 na         1 3YV       0.343800
     26 N8           6.0800     0.4100     0.1700 nc         1 3YV      -0.493300
     27 C17          7.3860     0.2260     0.1480 cd         1 3YV       0.198900
     28 C16          7.6330    -1.0720    -0.3150 cd         1 3YV       0.198900
     29 N7           6.4730    -1.6460    -0.5640 nc         1 3YV      -0.493300
     30 H1          -4.9160     0.6330     1.3650 hc         1 3YV       0.059700
     31 H2          -6.3350    -0.1690     0.7350 hc         1 3YV       0.059700
     32 H3          -4.8170     0.1740    -1.0810 h1         1 3YV       0.056700
     33 H4          -2.6780    -1.5020    -0.6240 hn         1 3YV       0.522000
     34 H5           0.4020    -1.5400    -0.7330 ha         1 3YV       0.152000
     35 H6           1.9880    -3.3240    -1.2700 ha         1 3YV       0.119000
     36 H7           4.4170    -2.9860    -1.0620 ha         1 3YV       0.143000
     37 H8           3.6980     1.0290     0.2530 ha         1 3YV       0.150000
     38 H9          -1.6470     4.7110     1.0420 hn         1 3YV       0.331500
     39 H10         -0.1640     5.5750     1.2820 hn         1 3YV       0.331500
     40 H11         -4.0680    -1.5310     2.2700 hc         1 3YV       0.047200
     41 H12         -5.6680    -1.1810     2.8870 hc         1 3YV       0.047200
     42 H13         -5.4650    -3.5680     2.1240 hc         1 3YV       0.041200
     43 H14         -6.6960    -2.6940     1.2370 hc         1 3YV       0.041200
     44 H15         -3.8510    -3.2800     0.2870 hc         1 3YV       0.047700
     45 H16         -5.3180    -4.0040    -0.3330 hc         1 3YV       0.047700
     46 H17         -6.1270    -1.8200    -1.1200 h1         1 3YV       0.029700
     47 H18         -4.6140    -3.1770    -2.4910 hn         1 3YV       0.404000
     48 H19         -4.4850    -1.6040    -2.8490 hn         1 3YV       0.404000
     49 H21          1.6450     1.8390     0.3560 hn         1 3YV       0.553000
     50 H22          8.0740     0.9970     0.4520 h4         1 3YV       0.053600
     51 H23          8.5670    -1.5860    -0.4710 h4         1 3YV       0.053600
@<TRIPOS>BOND
     1     1     2 1   
     2     1    19 1   
     3     1    30 1   
     4     1    31 1   
     5     2     4 1   
     6     2    22 1   
     7     2    32 1   
     8     3     4 1   
     9     3     7 ar  
    10     3    18 ar  
    11     4    33 1   
    12     5     6 1   
    13     5     8 ar  
    14     5    12 ar  
    15     6    16 1   
    16     6    17 2   
    17     7    12 ar  
    18     8    18 ar  
    19     8    24 1   
    20     9    10 ar  
    21     9    15 ar  
    22     9    24 1   
    23    10    11 ar  
    24    10    34 1   
    25    11    13 ar  
    26    11    35 1   
    27    13    14 ar  
    28    13    36 1   
    29    14    15 ar  
    30    14    25 1   
    31    15    37 1   
    32    16    38 1   
    33    16    39 1   
    34    19    20 1   
    35    19    40 1   
    36    19    41 1   
    37    20    21 1   
    38    20    42 1   
    39    20    43 1   
    40    21    22 1   
    41    21    44 1   
    42    21    45 1   
    43    22    23 1   
    44    22    46 1   
    45    23    47 1   
    46    23    48 1   
    47    24    49 1   
    48    25    26 1   
    49    25    29 1   
    50    26    27 2   
    51    27    28 1   
    52    27    50 1   
    53    28    29 2   
    54    28    51 1   
@<TRIPOS>SUBSTRUCTURE
     1 3YV         1 TEMP              0 ****  ****    0 ROOT
