@<TRIPOS>MOLECULE
3YV
   51    54     1     0     0
SMALL
No Charge or Current Charge


@<TRIPOS>ATOM
      1 C4          -5.2380    -0.4510     1.2580 c6         1 3YV      -0.086400
      2 C5          -4.5820    -0.6980    -0.1330 c6         1 3YV       0.254500
      3 C6          -2.3200     0.4830     0.0170 ca         1 3YV       0.377900
      4 N1          -3.1060    -0.6540    -0.0670 nu         1 3YV      -0.886100
      5 C7          -0.7860     2.6540     0.1760 ca         1 3YV       0.054500
      6 C8           0.0810     3.8930     0.3020 c          1 3YV       0.540600
      7 N2          -2.9030     1.6790     0.2550 nb         1 3YV      -0.206000
      8 C9          -0.2250     1.3720    -0.0920 ca         1 3YV       0.433900
      9 C10          1.9770     0.0920    -0.5740 ca         1 3YV       0.317000
     10 C11          1.5340    -1.0020    -1.3420 ca         1 3YV      -0.131000
     11 C12          2.4070    -2.0610    -1.6440 ca         1 3YV      -0.083000
     12 N3          -2.1320     2.7790     0.3380 nb         1 3YV      -0.242000
     13 C13          3.7340    -2.0280    -1.1870 ca         1 3YV      -0.128000
     14 C14          4.1980    -0.9320    -0.4310 ca         1 3YV       0.046800
     15 C15          3.3100     0.1250    -0.1360 ca         1 3YV      -0.156000
     16 N4          -0.5400     5.0790     0.5070 nt         1 3YV      -0.573000
     17 O            1.3030     3.8760     0.2390 o          1 3YV      -0.653100
     18 N9          -1.0070     0.2780    -0.1600 nb         1 3YV      -0.316000
     19 C3          -5.0470    -1.6420     2.2310 c6         1 3YV      -0.074400
     20 C2          -5.5740    -2.9560     1.6100 c6         1 3YV      -0.074400
     21 C1          -4.8760    -3.2510     0.2610 c6         1 3YV      -0.075400
     22 C           -5.0450    -2.0790    -0.7450 c6         1 3YV       0.145500
     23 N           -4.3300    -2.4160    -2.0110 n8         1 3YV      -1.017200
     24 N5           1.1530     1.1760    -0.2600 nu         1 3YV      -0.921900
     25 N6           5.5240    -0.8930     0.0210 na         1 3YV       0.343800
     26 N8           5.8130    -0.6130     1.3380 nc         1 3YV      -0.493300
     27 C17          7.1280    -0.6810     1.2960 cd         1 3YV       0.198900
     28 C16          7.5810    -0.9900    -0.0060 cd         1 3YV       0.198900
     29 N7           6.5720    -1.1300    -0.8410 nc         1 3YV      -0.493300
     30 H1          -4.8490     0.4680     1.7130 hc         1 3YV       0.059700
     31 H2          -6.3140    -0.2800     1.1130 hc         1 3YV       0.059700
     32 H3          -4.9280     0.0920    -0.8170 h1         1 3YV       0.056700
     33 H4          -2.6410    -1.4530    -0.4990 hn         1 3YV       0.522000
     34 H5           0.5200    -1.0320    -1.7270 ha         1 3YV       0.152000
     35 H6           2.0560    -2.9030    -2.2380 ha         1 3YV       0.119000
     36 H7           4.4050    -2.8510    -1.4240 ha         1 3YV       0.143000
     37 H8           3.6630     0.9710     0.4460 ha         1 3YV       0.150000
     38 H9          -1.5470     5.1140     0.5680 hn         1 3YV       0.331500
     39 H10          0.0120     5.9190     0.5990 hn         1 3YV       0.331500
     40 H11         -3.9840    -1.7490     2.4860 hc         1 3YV       0.047200
     41 H12         -5.5730    -1.4390     3.1740 hc         1 3YV       0.047200
     42 H13         -5.4060    -3.7900     2.3060 hc         1 3YV       0.041200
     43 H14         -6.6610    -2.8880     1.4600 hc         1 3YV       0.041200
     44 H15         -3.8090    -3.4450     0.4400 hc         1 3YV       0.047700
     45 H16         -5.2900    -4.1750    -0.1670 hc         1 3YV       0.047700
     46 H17         -6.1140    -1.9930    -0.9940 h1         1 3YV       0.029700
     47 H18         -4.7820    -3.2330    -2.4380 hn         1 3YV       0.404000
     48 H19         -4.4970    -1.6680    -2.6950 hn         1 3YV       0.404000
     49 H21          1.6650     2.0460    -0.0570 hn         1 3YV       0.553000
     50 H22          7.7110    -0.5080     2.1910 h4         1 3YV       0.053600
     51 H23          8.5980    -1.1130    -0.3550 h4         1 3YV       0.053600
@<TRIPOS>BOND
     1     1     2 1   
     2     1    19 1   
     3     1    30 1   
     4     1    31 1   
     5     2     4 1   
     6     2    22 1   
     7     2    32 1   
     8     3     4 1   
     9     3     7 ar  
    10     3    18 ar  
    11     4    33 1   
    12     5     6 1   
    13     5     8 ar  
    14     5    12 ar  
    15     6    16 1   
    16     6    17 2   
    17     7    12 ar  
    18     8    18 ar  
    19     8    24 1   
    20     9    10 ar  
    21     9    15 ar  
    22     9    24 1   
    23    10    11 ar  
    24    10    34 1   
    25    11    13 ar  
    26    11    35 1   
    27    13    14 ar  
    28    13    36 1   
    29    14    15 ar  
    30    14    25 1   
    31    15    37 1   
    32    16    38 1   
    33    16    39 1   
    34    19    20 1   
    35    19    40 1   
    36    19    41 1   
    37    20    21 1   
    38    20    42 1   
    39    20    43 1   
    40    21    22 1   
    41    21    44 1   
    42    21    45 1   
    43    22    23 1   
    44    22    46 1   
    45    23    47 1   
    46    23    48 1   
    47    24    49 1   
    48    25    26 1   
    49    25    29 1   
    50    26    27 2   
    51    27    28 1   
    52    27    50 1   
    53    28    29 2   
    54    28    51 1   
@<TRIPOS>SUBSTRUCTURE
     1 3YV         1 TEMP              0 ****  ****    0 ROOT
