@<TRIPOS>MOLECULE
3YW
   41    41     1     0     0
SMALL
bcc


@<TRIPOS>ATOM
      1 O3          -5.2560     1.7880    -0.7870 oh         1 3YW      -0.580800
      2 C4          -2.0320     0.6540     0.6680 c3         1 3YW       0.101400
      3 C5          -3.0080     1.0930    -0.4090 c3         1 3YW       0.143100
      4 O4           0.1370    -1.1450     1.3450 os         1 3YW      -0.415600
      5 C6          -4.3860     1.2920     0.2010 c3         1 3YW       0.106400
      6 C7           0.2200    -2.0740     0.2740 c6         1 3YW       0.117100
      7 C8           0.0140    -3.4520     0.8630 c3         1 3YW       0.144400
      8 C9           1.5800    -1.9370    -0.4170 c6         1 3YW       0.080100
      9 O5          -1.2870    -3.5310     1.3930 oh         1 3YW      -0.587800
     10 C10          1.7890    -0.4990    -0.8840 c6         1 3YW       0.134100
     11 O6           1.6720    -2.7640    -1.5570 oh         1 3YW      -0.597800
     12 O7           3.0780    -0.3030    -1.4020 oh         1 3YW      -0.582800
     13 O            3.6990     2.2590     0.9190 o          1 3YW      -0.602100
     14 C            2.7630     2.6240     0.2220 c          1 3YW       0.677100
     15 C1           2.6990     4.0190    -0.3480 c3         1 3YW      -0.179100
     16 N            1.7210     1.8310    -0.0950 ns         1 3YW      -0.562900
     17 C2           1.6070     0.4510     0.2960 c6         1 3YW       0.096700
     18 C3           0.2640     0.1960     0.9820 c6         1 3YW       0.323900
     19 O1          -0.7370     0.6090     0.1090 os         1 3YW      -0.430600
     20 O2          -3.0240     0.2010    -1.4990 oh         1 3YW      -0.566800
     21 H1          -6.1310     1.8710    -0.3980 ho         1 3YW       0.404000
     22 H2          -2.0580     1.3600     1.5090 h1         1 3YW       0.038200
     23 H3          -2.3260    -0.3290     1.0590 h1         1 3YW       0.038200
     24 H4          -2.6670     2.0520    -0.8150 h1         1 3YW       0.091700
     25 H5          -4.2980     1.9850     1.0480 h1         1 3YW       0.020700
     26 H6          -4.7410     0.3350     0.6100 h1         1 3YW       0.020700
     27 H7          -0.5720    -1.8860    -0.4660 h1         1 3YW       0.076700
     28 H8           0.1680    -4.1940     0.0690 h1         1 3YW       0.026200
     29 H9           0.7800    -3.6350     1.6290 h1         1 3YW       0.026200
     30 H10          2.3690    -2.1770     0.3110 h1         1 3YW       0.053700
     31 H11         -1.3980    -4.4070     1.7730 ho         1 3YW       0.405000
     32 H12          1.0250    -0.2750    -1.6450 h1         1 3YW       0.062700
     33 H13          2.0320    -3.6170    -1.3000 ho         1 3YW       0.410000
     34 H14          3.1890    -0.9060    -2.1460 ho         1 3YW       0.417000
     35 H15          3.5040     4.1480    -1.0720 hc         1 3YW       0.060033
     36 H16          1.7560     4.2470    -0.8420 hc         1 3YW       0.060033
     37 H17          2.8590     4.7450     0.4480 hc         1 3YW       0.060033
     38 H18          0.9930     2.2070    -0.6820 hn         1 3YW       0.324500
     39 H19          2.3920     0.2520     1.0290 h1         1 3YW       0.106700
     40 H20          0.2180     0.7590     1.9240 h2         1 3YW       0.080700
     41 H21         -3.3520    -0.6520    -1.1940 ho         1 3YW       0.399000
@<TRIPOS>BOND
     1     1     5 1   
     2     1    21 1   
     3     2     3 1   
     4     2    19 1   
     5     2    22 1   
     6     2    23 1   
     7     3     5 1   
     8     3    20 1   
     9     3    24 1   
    10     4     6 1   
    11     4    18 1   
    12     5    25 1   
    13     5    26 1   
    14     6     7 1   
    15     6     8 1   
    16     6    27 1   
    17     7     9 1   
    18     7    28 1   
    19     7    29 1   
    20     8    10 1   
    21     8    11 1   
    22     8    30 1   
    23     9    31 1   
    24    10    12 1   
    25    10    17 1   
    26    10    32 1   
    27    11    33 1   
    28    12    34 1   
    29    13    14 2   
    30    14    15 1   
    31    14    16 1   
    32    15    35 1   
    33    15    36 1   
    34    15    37 1   
    35    16    17 1   
    36    16    38 1   
    37    17    18 1   
    38    17    39 1   
    39    18    19 1   
    40    18    40 1   
    41    20    41 1   
@<TRIPOS>SUBSTRUCTURE
     1 3YW         1 TEMP              0 ****  ****    0 ROOT
