@<TRIPOS>MOLECULE
3YW
   41    41     1     0     0
SMALL
No Charge or Current Charge


@<TRIPOS>ATOM
      1 O3          -5.3700     1.6220    -0.7250 oh         1 3YW      -0.643000
      2 C4          -1.9510     0.6430     0.6970 c3         1 3YW       0.124600
      3 C5          -3.0090     1.0870    -0.3500 c3         1 3YW       0.166300
      4 O4           0.2910    -1.1410     1.3310 os         1 3YW      -0.462000
      5 C6          -4.4000     1.3220     0.2950 c3         1 3YW       0.129600
      6 C7           0.3030    -2.1180     0.2550 c6         1 3YW       0.140300
      7 C8           0.0200    -3.5290     0.8740 c3         1 3YW       0.167600
      8 C9           1.6670    -2.0510    -0.5020 c6         1 3YW       0.103300
      9 O5          -1.2060    -3.5870     1.6310 oh         1 3YW      -0.710000
     10 C10          1.8930    -0.5950    -1.0040 c6         1 3YW       0.157300
     11 O6           1.7220    -2.9650    -1.6220 oh         1 3YW      -0.720000
     12 O7           3.1530    -0.5140    -1.6910 oh         1 3YW      -0.645000
     13 O            2.3990     2.7740     1.7360 o          1 3YW      -0.602100
     14 C            2.3180     2.8780     0.5210 c          1 3YW       0.610100
     15 C1           2.5160     4.2000    -0.2080 c3         1 3YW      -0.179100
     16 N            2.0350     1.8060    -0.2860 ns         1 3YW      -0.495900
     17 C2           1.8230     0.4140     0.1800 c6         1 3YW       0.096700
     18 C3           0.4570     0.2350     0.9160 c6         1 3YW       0.370300
     19 O1          -0.6500     0.6210     0.0750 os         1 3YW      -0.477000
     20 O2          -3.1580     0.1010    -1.3920 oh         1 3YW      -0.689000
     21 H1          -6.2150     1.8310    -0.2670 ho         1 3YW       0.443000
     22 H2          -1.9580     1.3510     1.5370 h1         1 3YW       0.038200
     23 H3          -2.2190    -0.3480     1.0870 h1         1 3YW       0.038200
     24 H4          -2.6760     2.0440    -0.7770 h1         1 3YW       0.091700
     25 H5          -4.3280     2.1540     1.0080 h1         1 3YW       0.020700
     26 H6          -4.7000     0.4260     0.8540 h1         1 3YW       0.020700
     27 H7          -0.5130    -1.8900    -0.4470 h1         1 3YW       0.076700
     28 H8          -0.0160    -4.2630     0.0590 h1         1 3YW       0.026200
     29 H9           0.8690    -3.7960     1.5170 h1         1 3YW       0.026200
     30 H10          2.4670    -2.2920     0.2160 h1         1 3YW       0.053700
     31 H11         -1.2490    -4.4830     2.0390 ho         1 3YW       0.504000
     32 H12          1.0800    -0.3530    -1.7060 h1         1 3YW       0.062700
     33 H13          1.9560    -3.8570    -1.2710 ho         1 3YW       0.509000
     34 H14          3.2030    -1.3480    -2.2120 ho         1 3YW       0.456000
     35 H15          3.3000     4.0760    -0.9640 hc         1 3YW       0.060033
     36 H16          1.6310     4.4050    -0.8210 hc         1 3YW       0.060033
     37 H17          2.7380     5.0290     0.4730 hc         1 3YW       0.060033
     38 H18          2.0050     1.9850    -1.2830 hn         1 3YW       0.324500
     39 H19          2.6230     0.1680     0.8930 h1         1 3YW       0.106700
     40 H20          0.4640     0.8770     1.8110 h2         1 3YW       0.080700
     41 H21         -4.0600     0.2750    -1.7550 ho         1 3YW       0.498000
@<TRIPOS>BOND
     1     1     5 1   
     2     1    21 1   
     3     2     3 1   
     4     2    19 1   
     5     2    22 1   
     6     2    23 1   
     7     3     5 1   
     8     3    20 1   
     9     3    24 1   
    10     4     6 1   
    11     4    18 1   
    12     5    25 1   
    13     5    26 1   
    14     6     7 1   
    15     6     8 1   
    16     6    27 1   
    17     7     9 1   
    18     7    28 1   
    19     7    29 1   
    20     8    10 1   
    21     8    11 1   
    22     8    30 1   
    23     9    31 1   
    24    10    12 1   
    25    10    17 1   
    26    10    32 1   
    27    11    33 1   
    28    12    34 1   
    29    13    14 2   
    30    14    15 1   
    31    14    16 1   
    32    15    35 1   
    33    15    36 1   
    34    15    37 1   
    35    16    17 1   
    36    16    38 1   
    37    17    18 1   
    38    17    39 1   
    39    18    19 1   
    40    18    40 1   
    41    20    41 1   
@<TRIPOS>SUBSTRUCTURE
     1 3YW         1 TEMP              0 ****  ****    0 ROOT
