@<TRIPOS>MOLECULE
3YX
   49    52     1     0     0
SMALL
abcg2


@<TRIPOS>ATOM
      1 C1           4.8660     0.2950     1.6630 c6         1 3YX      -0.074400
      2 C2           5.5920     1.5200     1.1200 c6         1 3YX      -0.074400
      3 C3           4.8340     2.1290    -0.0530 c6         1 3YX      -0.075400
      4 C11         -2.2850     3.2600     0.7630 ca         1 3YX      -0.130000
      5 C12         -3.5240     3.4720     0.1940 ca         1 3YX      -0.070000
      6 C14         -0.4330    -2.3190     0.4600 ca         1 3YX       0.045500
      7 C17          1.4960    -0.6190    -0.0430 ca         1 3YX       0.376900
      8 C19         -0.7120    -0.9180     0.3570 ca         1 3YX       0.431900
      9 C22         -3.6650     1.0820    -0.1840 ca         1 3YX      -0.069200
     10 C23         -4.2360     2.3670    -0.2870 ca         1 3YX      -0.086800
     11 C24         -5.5020     2.2010    -0.9300 cc         1 3YX      -0.242200
     12 C25         -5.6430     0.8680    -1.1840 cd         1 3YX      -0.161100
     13 C4           4.5750     1.1090    -1.1600 c6         1 3YX       0.145500
     14 C5           3.8580    -0.1420    -0.6280 c6         1 3YX       0.254500
     15 C6           4.6300    -0.7250     0.5570 c6         1 3YX      -0.085400
     16 N7           2.4960     0.2310    -0.2890 nu         1 3YX      -0.887100
     17 N8           3.7770     1.7260    -2.2080 n8         1 3YX      -1.014200
     18 C9          -2.4130     0.8640     0.4060 ca         1 3YX       0.272000
     19 C10         -1.7340     1.9740     0.8790 ca         1 3YX      -0.089000
     20 N13         -1.9620    -0.4580     0.5190 nu         1 3YX      -0.926900
     21 N15          0.8010    -2.7370     0.2960 nb         1 3YX      -0.242000
     22 N16          1.7910    -1.9320     0.0520 nb         1 3YX      -0.210000
     23 N18          0.2770    -0.0910     0.0930 nb         1 3YX      -0.309000
     24 O21         -2.6560    -3.0410     0.8570 o          1 3YX      -0.667100
     25 N26         -4.5430     0.1930    -0.7350 na         1 3YX      -0.221700
     26 N27         -1.0350    -4.6090     0.7760 nt         1 3YX      -0.574000
     27 H1           5.4440    -0.1630     2.4680 hc         1 3YX       0.046700
     28 H2           3.9100     0.5990     2.1020 hc         1 3YX       0.046700
     29 H3           5.7260     2.2680     1.9040 hc         1 3YX       0.040200
     30 H4           6.5960     1.2290     0.7930 hc         1 3YX       0.040200
     31 H5           3.8840     2.5440     0.2990 hc         1 3YX       0.047700
     32 H6           5.3980     2.9690    -0.4700 hc         1 3YX       0.047700
     33 H8          -3.9340     4.4710     0.1180 ha         1 3YX       0.115000
     34 H9          -6.2150     2.9730    -1.1730 ha         1 3YX       0.205000
     35 H10         -6.4510     0.3350    -1.6590 h4         1 3YX       0.212000
     36 H11          5.5530     0.7550    -1.5210 h1         1 3YX       0.028700
     37 H12          3.8350    -0.8910    -1.4290 h1         1 3YX       0.055700
     38 H13          5.5960    -1.0760     0.1780 hc         1 3YX       0.058700
     39 H14          4.1080    -1.6040     0.9330 hc         1 3YX       0.058700
     40 H15          2.2120     1.1590    -0.5710 hn         1 3YX       0.524000
     41 H16          4.2440     2.5610    -2.5390 hn         1 3YX       0.403500
     42 H17          3.7120     1.1060    -3.0070 hn         1 3YX       0.403500
     43 H19         -0.7690     1.8530     1.3480 ha         1 3YX       0.132000
     44 H20         -2.6430    -1.1910     0.7070 hn         1 3YX       0.545000
     45 H21         -4.3960    -0.7950    -0.8530 hn         1 3YX       0.357000
     46 H22         -0.0600    -4.8230     0.6500 hn         1 3YX       0.331000
     47 H23         -1.6810    -5.3610     0.9490 hn         1 3YX       0.331000
     48 C20         -1.4700    -3.3510     0.7150 c          1 3YX       0.543600
     49 H7          -1.7180     4.1000     1.1420 ha         1 3YX       0.112000
@<TRIPOS>BOND
     1     1     2 1   
     2     1    15 1   
     3     1    27 1   
     4     1    28 1   
     5     2     3 1   
     6     2    29 1   
     7     2    30 1   
     8     3    13 1   
     9     3    31 1   
    10     3    32 1   
    11     4     5 ar  
    12     4    19 ar  
    13     4    49 1   
    14     5    10 ar  
    15     5    33 1   
    16     6     8 ar  
    17     6    21 ar  
    18     6    48 1   
    19     7    16 1   
    20     7    22 ar  
    21     7    23 ar  
    22     8    20 1   
    23     8    23 ar  
    24     9    10 ar  
    25     9    18 ar  
    26     9    25 1   
    27    10    11 1   
    28    11    12 2   
    29    11    34 1   
    30    12    25 1   
    31    12    35 1   
    32    13    14 1   
    33    13    17 1   
    34    13    36 1   
    35    14    15 1   
    36    14    16 1   
    37    14    37 1   
    38    15    38 1   
    39    15    39 1   
    40    16    40 1   
    41    17    41 1   
    42    17    42 1   
    43    18    19 ar  
    44    18    20 1   
    45    19    43 1   
    46    20    44 1   
    47    21    22 ar  
    48    24    48 2   
    49    25    45 1   
    50    26    46 1   
    51    26    47 1   
    52    26    48 1   
@<TRIPOS>SUBSTRUCTURE
     1 3YX         1 TEMP              0 ****  ****    0 ROOT
