@<TRIPOS>MOLECULE
3YX
   49    52     1     0     0
SMALL
No Charge or Current Charge


@<TRIPOS>ATOM
      1 C1           5.0690     0.4590     1.7720 c6         1 3YX      -0.074400
      2 C2           5.8340     1.6270     1.1080 c6         1 3YX      -0.074400
      3 C3           5.0450     2.1950    -0.0960 c6         1 3YX      -0.075400
      4 C11         -2.3840     3.2960     0.6800 ca         1 3YX      -0.130000
      5 C12         -3.7050     3.4590     0.2180 ca         1 3YX      -0.070000
      6 C14         -0.4700    -2.3910     0.3400 ca         1 3YX       0.045500
      7 C17          1.5550    -0.6970    -0.0060 ca         1 3YX       0.376900
      8 C19         -0.6890    -0.9870     0.2490 ca         1 3YX       0.431900
      9 C22         -3.8330     1.0660    -0.1680 ca         1 3YX      -0.069200
     10 C23         -4.3950     2.3150    -0.1940 ca         1 3YX      -0.086800
     11 C24         -5.7260     2.1780    -0.6980 cc         1 3YX      -0.242200
     12 C25         -5.9250     0.8310    -0.9680 cd         1 3YX      -0.161100
     13 C4           4.7280     1.0950    -1.1490 c6         1 3YX       0.145500
     14 C5           4.0030    -0.1530    -0.5050 c6         1 3YX       0.254500
     15 C6           4.7730    -0.6660     0.7480 c6         1 3YX      -0.085400
     16 N7           2.6000     0.1940    -0.1940 nu         1 3YX      -0.887100
     17 N8           3.9470     1.7010    -2.2660 n8         1 3YX      -1.014200
     18 C9          -2.5080     0.8680     0.2790 ca         1 3YX       0.272000
     19 C10         -1.7930     2.0110     0.7140 ca         1 3YX      -0.089000
     20 N13         -1.9710    -0.4280     0.3170 nu         1 3YX      -0.926900
     21 N15          0.7980    -2.8800     0.2620 nb         1 3YX      -0.242000
     22 N16          1.8180    -2.0190     0.0890 nb         1 3YX      -0.210000
     23 N18          0.3400    -0.1380     0.0610 nb         1 3YX      -0.309000
     24 O21         -2.7990    -3.0320     0.5150 o          1 3YX      -0.667100
     25 N26         -4.7420     0.1200    -0.6420 na         1 3YX      -0.221700
     26 N27         -1.3210    -4.6790     0.6340 nt         1 3YX      -0.574000
     27 H1           5.6580     0.0560     2.6070 hc         1 3YX       0.046700
     28 H2           4.1280     0.8270     2.2050 hc         1 3YX       0.046700
     29 H3           6.0110     2.4230     1.8450 hc         1 3YX       0.040200
     30 H4           6.8240     1.2840     0.7760 hc         1 3YX       0.040200
     31 H5           4.1130     2.6520     0.2650 hc         1 3YX       0.047700
     32 H6           5.6250     3.0030    -0.5620 hc         1 3YX       0.047700
     33 H8          -4.1730     4.4400     0.1880 ha         1 3YX       0.115000
     34 H9          -6.4570     2.9700    -0.8500 ha         1 3YX       0.205000
     35 H10         -6.8060     0.3300    -1.3660 h4         1 3YX       0.212000
     36 H11          5.6800     0.7470    -1.5760 h1         1 3YX       0.028700
     37 H12          4.0090    -0.9550    -1.2600 h1         1 3YX       0.055700
     38 H13          5.7240    -1.1060     0.4190 hc         1 3YX       0.058700
     39 H14          4.2220    -1.4790     1.2370 hc         1 3YX       0.058700
     40 H15          2.3100     1.1150    -0.5230 hn         1 3YX       0.524000
     41 H16          4.5340     2.3970    -2.7410 hn         1 3YX       0.403500
     42 H17          3.7930     0.9870    -2.9890 hn         1 3YX       0.403500
     43 H19         -0.7850     1.9120     1.1010 ha         1 3YX       0.132000
     44 H20         -2.6780    -1.1720     0.3730 hn         1 3YX       0.545000
     45 H21         -4.5860    -0.8770    -0.7590 hn         1 3YX       0.357000
     46 H22         -0.3560    -4.9760     0.6220 hn         1 3YX       0.331000
     47 H23         -2.0670    -5.3510     0.7410 hn         1 3YX       0.331000
     48 C20         -1.6210    -3.3660     0.5040 c          1 3YX       0.543600
     49 H7          -1.8190     4.1620     1.0190 ha         1 3YX       0.112000
@<TRIPOS>BOND
     1     1     2 1   
     2     1    15 1   
     3     1    27 1   
     4     1    28 1   
     5     2     3 1   
     6     2    29 1   
     7     2    30 1   
     8     3    13 1   
     9     3    31 1   
    10     3    32 1   
    11     4     5 ar  
    12     4    19 ar  
    13     4    49 1   
    14     5    10 ar  
    15     5    33 1   
    16     6     8 ar  
    17     6    21 ar  
    18     6    48 1   
    19     7    16 1   
    20     7    22 ar  
    21     7    23 ar  
    22     8    20 1   
    23     8    23 ar  
    24     9    10 ar  
    25     9    18 ar  
    26     9    25 1   
    27    10    11 1   
    28    11    12 2   
    29    11    34 1   
    30    12    25 1   
    31    12    35 1   
    32    13    14 1   
    33    13    17 1   
    34    13    36 1   
    35    14    15 1   
    36    14    16 1   
    37    14    37 1   
    38    15    38 1   
    39    15    39 1   
    40    16    40 1   
    41    17    41 1   
    42    17    42 1   
    43    18    19 ar  
    44    18    20 1   
    45    19    43 1   
    46    20    44 1   
    47    21    22 ar  
    48    24    48 2   
    49    25    45 1   
    50    26    46 1   
    51    26    47 1   
    52    26    48 1   
@<TRIPOS>SUBSTRUCTURE
     1 3YX         1 TEMP              0 ****  ****    0 ROOT
