@<TRIPOS>MOLECULE
3YY
   38    41     1     0     0
SMALL
abcg2


@<TRIPOS>ATOM
      1 C1          17.3220    18.4200   -18.8920 ca         1 3YY      -0.108000
      2 C2          16.5320    19.1960   -19.7330 ca         1 3YY      -0.095000
      3 C3          17.5400    18.8330   -17.5800 ca         1 3YY      -0.095000
      4 C4          15.3770    23.6370   -13.6290 ca         1 3YY      -0.063000
      5 C5          13.4640    24.7870   -14.5360 ca         1 3YY      -0.063000
      6 C6          15.9580    20.3750   -19.2720 ca         1 3YY      -0.109500
      7 C7          16.9840    20.0160   -17.1110 ca         1 3YY      -0.109500
      8 C8          15.0880    24.1320   -12.3650 ca         1 3YY      -0.153000
      9 C9          13.1650    25.2940   -13.2760 ca         1 3YY      -0.153000
     10 C10         15.2900    23.0910   -18.2170 cc         1 3YY      -0.125000
     11 C11         14.5730    23.9570   -14.7300 ca         1 3YY      -0.147500
     12 C12         14.8120    24.0330   -17.3330 cd         1 3YY      -0.224300
     13 C13         16.1930    20.7860   -17.9620 ca         1 3YY       0.011800
     14 C14         13.9860    24.9550   -12.2170 ca         1 3YY       0.173000
     15 C15         14.9030    23.4150   -16.0550 cd         1 3YY       0.345500
     16 C16         12.9120    25.4900   -18.1710 c          1 3YY       0.561000
     17 C17         14.2670    26.3200   -19.8460 c          1 3YY       0.616000
     18 C18         14.3720    25.4210   -17.6800 c5         1 3YY       0.117000
     19 N19         15.4030    22.1840   -16.1690 nc         1 3YY      -0.504800
     20 N20         15.6320    21.9990   -17.4890 na         1 3YY       0.229000
     21 N21         12.9590    26.0200   -19.4250 ns         1 3YY      -0.485500
     22 N22         15.0770    25.9870   -18.8180 ns         1 3YY      -0.526900
     23 O23         11.9250    25.1390   -17.5610 o          1 3YY      -0.501000
     24 O24         14.5620    26.7870   -20.9300 o          1 3YY      -0.544000
     25 F25         13.7020    25.4460   -10.9840 f          1 3YY      -0.182000
     26 H1          17.7620    17.5000   -19.2540 ha         1 3YY       0.121000
     27 H2          16.3470    18.8810   -20.7520 ha         1 3YY       0.121500
     28 H3          18.1550    18.2370   -16.9180 ha         1 3YY       0.121500
     29 H5          12.8060    25.0130   -15.3640 ha         1 3YY       0.133500
     30 H6          15.3230    20.9580   -19.9240 ha         1 3YY       0.131500
     31 H7          17.1610    20.3480   -16.0990 ha         1 3YY       0.131500
     32 H8          15.7060    23.8930   -11.5100 ha         1 3YY       0.135000
     33 H9          12.3050    25.9310   -13.1160 ha         1 3YY       0.135000
     34 H10         15.4450    23.1450   -19.2810 h4         1 3YY       0.164000
     35 H18         14.4560    26.0680   -16.8030 h1         1 3YY       0.096700
     36 HN21        12.1530    26.1690   -20.0150 hn         1 3YY       0.356500
     37 HN22        16.0790    26.0770   -18.8710 hn         1 3YY       0.354500
     38 H4          16.2420    23.0030   -13.7700 ha         1 3YY       0.133500
@<TRIPOS>BOND
     1     1     2 ar  
     2     1     3 ar  
     3     1    26 1   
     4     2     6 ar  
     5     2    27 1   
     6     3     7 ar  
     7     3    28 1   
     8     4     8 ar  
     9     4    11 ar  
    10     4    38 1   
    11     5     9 ar  
    12     5    11 ar  
    13     5    29 1   
    14     6    13 ar  
    15     6    30 1   
    16     7    13 ar  
    17     7    31 1   
    18     8    14 ar  
    19     8    32 1   
    20     9    14 ar  
    21     9    33 1   
    22    10    12 2   
    23    10    20 1   
    24    10    34 1   
    25    11    15 1   
    26    12    15 1   
    27    12    18 1   
    28    13    20 1   
    29    14    25 1   
    30    15    19 2   
    31    16    18 1   
    32    16    21 1   
    33    16    23 2   
    34    17    21 1   
    35    17    22 1   
    36    17    24 2   
    37    18    22 1   
    38    18    35 1   
    39    19    20 1   
    40    21    36 1   
    41    22    37 1   
@<TRIPOS>SUBSTRUCTURE
     1 3YY         1 TEMP              0 ****  ****    0 ROOT
