@<TRIPOS>MOLECULE
3YY
   38    41     1     0     0
SMALL
No Charge or Current Charge


@<TRIPOS>ATOM
      1 C1          17.2300    18.4640   -19.0130 ca         1 3YY      -0.108000
      2 C2          16.1370    19.0950   -19.6290 ca         1 3YY      -0.095000
      3 C3          17.8020    19.0210   -17.8580 ca         1 3YY      -0.095000
      4 C4          15.3790    23.6670   -13.4980 ca         1 3YY      -0.063000
      5 C5          13.4310    24.7360   -14.4920 ca         1 3YY      -0.063000
      6 C6          15.6150    20.2850   -19.0900 ca         1 3YY      -0.109500
      7 C7          17.2810    20.2100   -17.3180 ca         1 3YY      -0.109500
      8 C8          15.0220    24.1870   -12.2410 ca         1 3YY      -0.153000
      9 C9          13.0760    25.2540   -13.2330 ca         1 3YY      -0.153000
     10 C10         15.2690    23.1180   -18.1720 cc         1 3YY      -0.125000
     11 C11         14.6010    23.9590   -14.6410 ca         1 3YY      -0.147500
     12 C12         14.8220    23.9980   -17.2230 cd         1 3YY      -0.224300
     13 C13         16.1830    20.8540   -17.9300 ca         1 3YY       0.011800
     14 C14         13.8750    24.9830   -12.1140 ca         1 3YY       0.173000
     15 C15         14.9550    23.3780   -15.9510 cd         1 3YY       0.345500
     16 C16         12.9330    25.3970   -18.3910 c          1 3YY       0.561000
     17 C17         14.4890    26.2750   -19.8450 c          1 3YY       0.616000
     18 C18         14.3280    25.3610   -17.6810 c5         1 3YY       0.117000
     19 N19         15.4870    22.1710   -16.0370 nc         1 3YY      -0.504800
     20 N20         15.6670    22.0410   -17.3960 na         1 3YY       0.229000
     21 N21         13.2190    25.9450   -19.5910 ns         1 3YY      -0.485500
     22 N22         15.1970    25.9410   -18.7330 ns         1 3YY      -0.526900
     23 O23         11.8300    25.0260   -18.0200 o          1 3YY      -0.501000
     24 O24         14.9250    26.7720   -20.8640 o          1 3YY      -0.544000
     25 F25         13.5310    25.4780   -10.9050 f          1 3YY      -0.182000
     26 H1          17.6330    17.5430   -19.4310 ha         1 3YY       0.121000
     27 H2          15.6920    18.6620   -20.5230 ha         1 3YY       0.121500
     28 H3          18.6490    18.5320   -17.3810 ha         1 3YY       0.121500
     29 H5          12.7830    24.9280   -15.3430 ha         1 3YY       0.133500
     30 H6          14.7630    20.7580   -19.5730 ha         1 3YY       0.131500
     31 H7          17.7350    20.6340   -16.4240 ha         1 3YY       0.131500
     32 H8          15.6310    23.9700   -11.3670 ha         1 3YY       0.135000
     33 H9          12.1770    25.8560   -13.1230 ha         1 3YY       0.135000
     34 H10         15.3560    23.1630   -19.2500 h4         1 3YY       0.164000
     35 H18         14.2680    26.0360   -16.8170 h1         1 3YY       0.096700
     36 HN21        12.5000    26.0950   -20.2810 hn         1 3YY       0.356500
     37 HN22        16.1960    26.1010   -18.6940 hn         1 3YY       0.354500
     38 H4          16.2690    23.0470   -13.5850 ha         1 3YY       0.133500
@<TRIPOS>BOND
     1     1     2 ar  
     2     1     3 ar  
     3     1    26 1   
     4     2     6 ar  
     5     2    27 1   
     6     3     7 ar  
     7     3    28 1   
     8     4     8 ar  
     9     4    11 ar  
    10     4    38 1   
    11     5     9 ar  
    12     5    11 ar  
    13     5    29 1   
    14     6    13 ar  
    15     6    30 1   
    16     7    13 ar  
    17     7    31 1   
    18     8    14 ar  
    19     8    32 1   
    20     9    14 ar  
    21     9    33 1   
    22    10    12 2   
    23    10    20 1   
    24    10    34 1   
    25    11    15 1   
    26    12    15 1   
    27    12    18 1   
    28    13    20 1   
    29    14    25 1   
    30    15    19 2   
    31    16    18 1   
    32    16    21 1   
    33    16    23 2   
    34    17    21 1   
    35    17    22 1   
    36    17    24 2   
    37    18    22 1   
    38    18    35 1   
    39    19    20 1   
    40    21    36 1   
    41    22    37 1   
@<TRIPOS>SUBSTRUCTURE
     1 3YY         1 TEMP              0 ****  ****    0 ROOT
