@<TRIPOS>MOLECULE
3YZ
   65    70     1     0     0
SMALL
abcg2


@<TRIPOS>ATOM
      1 C14         -7.8600     0.2150     1.1230 ca         1 3YZ      -0.198000
      2 C13         -6.9710    -0.8440     1.1360 ca         1 3YZ      -0.022000
      3 C11         -4.4220    -1.2980     0.7910 cc         1 3YZ      -0.208200
      4 C6           1.4050    -0.1700     1.0290 ca         1 3YZ      -0.056000
      5 C4           2.2020    -2.0540    -0.2910 ca         1 3YZ      -0.161000
      6 C15         -7.3970     1.5120     0.8690 ca         1 3YZ       0.360900
      7 C12         -5.6290    -0.5560     0.8880 ca         1 3YZ      -0.142800
      8 C5           2.4400    -0.9370     0.5360 ca         1 3YZ      -0.124600
      9 C7           0.1070    -0.5300     0.6570 ca         1 3YZ       0.087400
     10 C25         -0.1290    -1.6180    -0.1930 ca         1 3YZ      -0.097200
     11 C3           0.9240    -2.4080    -0.6810 ca         1 3YZ       0.144100
     12 C10         -3.4280    -0.3950     0.5170 cd         1 3YZ      -0.089700
     13 C17         -5.2910     0.7960     0.6590 ca         1 3YZ       0.373500
     14 C9          -2.0000    -0.6520     0.3930 cd         1 3YZ       0.480100
     15 C21         -2.2980     2.9780    -2.2520 cx         1 3YZ      -0.126900
     16 C22         -2.3660     1.4870    -2.3950 cx         1 3YZ      -0.126900
     17 C30          4.7660     1.7540    -1.2200 c6         1 3YZ      -0.143400
     18 C29          3.8290     1.5900    -0.0280 c6         1 3YZ       0.103000
     19 C35          5.6830     0.8490     1.3490 c6         1 3YZ       0.089000
     20 C20         -3.3530     2.2040    -1.5260 cx         1 3YZ      -0.150700
     21 C33          6.6630     0.9600     0.1810 c6         1 3YZ       0.148500
     22 C31          6.2000     2.0450    -0.7870 c6         1 3YZ       0.172300
     23 C1           1.6630    -4.2570    -1.9630 c3         1 3YZ       0.148900
     24 N16         -6.1310     1.8190     0.6350 nb         1 3YZ      -0.679000
     25 N8          -1.0800     0.0470     1.0080 nc         1 3YZ      -0.570100
     26 N23         -1.4900    -1.6700    -0.3590 na         1 3YZ      -0.145600
     27 N18         -3.9460     0.8810     0.4530 na         1 3YZ      -0.158400
     28 N28          4.3390     0.5650     0.8750 n          1 3YZ      -0.395800
     29 N34          7.9890     1.2440     0.6990 n8         1 3YZ      -0.978200
     30 O27          4.5110    -1.6290     1.4050 o          1 3YZ      -0.599100
     31 O32          6.3060     3.2960    -0.1410 oh         1 3YZ      -0.636000
     32 O2           0.6120    -3.4460    -1.4720 os         1 3YZ      -0.349100
     33 H1          -8.9140     0.0560     1.3030 ha         1 3YZ       0.122000
     34 H2          -7.3060    -1.8550     1.3260 ha         1 3YZ       0.120000
     35 H3          -4.2910    -2.3580     0.9430 ha         1 3YZ       0.209000
     36 H4           1.5750     0.6730     1.6860 ha         1 3YZ       0.141000
     37 H5           3.0520    -2.6340    -0.6250 ha         1 3YZ       0.131000
     38 H6          -8.1010     2.3370     0.8560 h4         1 3YZ       0.018100
     39 H8          -2.6020     3.5930    -3.0880 hc         1 3YZ       0.072450
     40 H9          -2.7170     1.0730    -3.3310 hc         1 3YZ       0.072450
     41 H10         -1.5870     0.9030    -1.9190 hc         1 3YZ       0.072450
     42 H11          4.7490     0.8390    -1.8200 hc         1 3YZ       0.051700
     43 H12          4.3940     2.5540    -1.8650 hc         1 3YZ       0.051700
     44 H13          3.7410     2.5290     0.5230 h1         1 3YZ       0.061700
     45 H14          2.8360     1.3300    -0.3780 h1         1 3YZ       0.061700
     46 H15          5.9970     0.0690     2.0390 h1         1 3YZ       0.078200
     47 H16          5.6650     1.7900     1.9060 h1         1 3YZ       0.078200
     48 H17         -4.3620     2.2900    -1.9170 hc         1 3YZ       0.091700
     49 H18          6.6200     0.0130    -0.3800 h1         1 3YZ       0.024700
     50 H19          6.8500     2.0170    -1.6750 h1         1 3YZ       0.027700
     51 H23          2.2210    -4.7320    -1.1530 h1         1 3YZ       0.045033
     52 H24          1.1970    -5.0290    -2.5700 h1         1 3YZ       0.045033
     53 H25          2.3570    -3.6880    -2.5860 h1         1 3YZ       0.045033
     54 H28          8.3410     0.4230     1.1770 hn         1 3YZ       0.396000
     55 H29          8.6290     1.4000    -0.0710 hn         1 3YZ       0.396000
     56 H31          5.9740     3.9690    -0.7430 ho         1 3YZ       0.435000
     57 C26          3.8550    -0.6940     0.9600 c          1 3YZ       0.612700
     58 C24         -2.2250    -2.5570    -1.2410 c3         1 3YZ       0.065900
     59 C19         -3.2790     2.0800    -0.0280 c3         1 3YZ       0.101600
     60 H7          -1.4820     3.3900    -1.6710 hc         1 3YZ       0.072450
     61 H20         -2.3330    -3.5470    -0.8020 h1         1 3YZ       0.060367
     62 H21         -3.2120    -2.1420    -1.4190 h1         1 3YZ       0.060367
     63 H22         -1.7130    -2.6410    -2.1940 h1         1 3YZ       0.060367
     64 H26         -2.2460     2.0600     0.3150 h1         1 3YZ       0.083700
     65 H27         -3.7630     2.9310     0.4510 h1         1 3YZ       0.083700
@<TRIPOS>BOND
     1     1     2 ar  
     2     1     6 ar  
     3     1    33 1   
     4     2     7 ar  
     5     2    34 1   
     6     3     7 1   
     7     3    12 2   
     8     3    35 1   
     9     4     8 ar  
    10     4     9 ar  
    11     4    36 1   
    12     5     8 ar  
    13     5    11 ar  
    14     5    37 1   
    15     6    24 ar  
    16     6    38 1   
    17     7    13 ar  
    18     8    57 1   
    19     9    10 ar  
    20     9    25 1   
    21    10    11 ar  
    22    10    26 1   
    23    11    32 1   
    24    12    14 1   
    25    12    27 1   
    26    13    24 ar  
    27    13    27 1   
    28    14    25 2   
    29    14    26 1   
    30    15    16 1   
    31    15    20 1   
    32    15    39 1   
    33    15    60 1   
    34    16    20 1   
    35    16    40 1   
    36    16    41 1   
    37    17    18 1   
    38    17    22 1   
    39    17    42 1   
    40    17    43 1   
    41    18    28 1   
    42    18    44 1   
    43    18    45 1   
    44    19    21 1   
    45    19    28 1   
    46    19    46 1   
    47    19    47 1   
    48    20    48 1   
    49    20    59 1   
    50    21    22 1   
    51    21    29 1   
    52    21    49 1   
    53    22    31 1   
    54    22    50 1   
    55    23    32 1   
    56    23    51 1   
    57    23    52 1   
    58    23    53 1   
    59    26    58 1   
    60    27    59 1   
    61    28    57 1   
    62    29    54 1   
    63    29    55 1   
    64    30    57 2   
    65    31    56 1   
    66    58    61 1   
    67    58    62 1   
    68    58    63 1   
    69    59    64 1   
    70    59    65 1   
@<TRIPOS>SUBSTRUCTURE
     1 3YZ         1 TEMP              0 ****  ****    0 ROOT
