@<TRIPOS>MOLECULE
3YZ
   65    70     1     0     0
SMALL
No Charge or Current Charge


@<TRIPOS>ATOM
      1 C14         -8.0000    -0.0950     0.4340 ca         1 3YZ      -0.198000
      2 C13         -7.0010    -1.0530     0.1930 ca         1 3YZ      -0.022000
      3 C11         -4.4670    -1.3270     0.0460 cc         1 3YZ      -0.208200
      4 C6           1.4220    -0.2540     0.6050 ca         1 3YZ      -0.056000
      5 C4           2.1850    -2.4830    -0.0400 ca         1 3YZ      -0.161000
      6 C15         -7.6240     1.2360     0.7070 ca         1 3YZ       0.360900
      7 C12         -5.6810    -0.5940     0.2420 ca         1 3YZ      -0.142800
      8 C5           2.4860    -1.1650     0.3940 ca         1 3YZ      -0.124600
      9 C7           0.1100    -0.6560     0.3270 ca         1 3YZ       0.087400
     10 C25         -0.1640    -1.9090    -0.1390 ca         1 3YZ      -0.097200
     11 C3           0.8510    -2.8720    -0.3140 ca         1 3YZ       0.144100
     12 C10         -3.4290    -0.4120     0.1970 cd         1 3YZ      -0.089700
     13 C17         -5.3740     0.7230     0.5140 ca         1 3YZ       0.373500
     14 C9          -2.0110    -0.7540     0.1220 cd         1 3YZ       0.480100
     15 C21         -2.2030     4.0300    -0.9430 cx         1 3YZ      -0.126900
     16 C22         -2.1290     2.7340    -1.7160 cx         1 3YZ      -0.126900
     17 C30          4.8830     1.5980    -1.6640 c6         1 3YZ      -0.143400
     18 C29          3.8150     1.4230    -0.5550 c6         1 3YZ       0.103000
     19 C35          5.5950     1.0660     1.1420 c6         1 3YZ       0.089000
     20 C20         -3.2560     2.9660    -0.7350 cx         1 3YZ      -0.150700
     21 C33          6.7130     1.2150     0.0710 c6         1 3YZ       0.148500
     22 C31          6.2220     2.1330    -1.1050 c6         1 3YZ       0.172300
     23 C1           1.5120    -5.1790    -0.9090 c3         1 3YZ       0.148900
     24 N16         -6.3320     1.6500     0.7500 nb         1 3YZ      -0.679000
     25 N8          -1.0340     0.0930     0.5010 nc         1 3YZ      -0.570100
     26 N23         -1.5260    -2.0070    -0.3310 na         1 3YZ      -0.145600
     27 N18         -3.9870     0.8680     0.4980 na         1 3YZ      -0.158400
     28 N28          4.3150     0.5680     0.5590 n          1 3YZ      -0.395800
     29 N34          7.9970     1.6770     0.6770 n8         1 3YZ      -0.978200
     30 O27          4.7000    -1.6150     1.1520 o          1 3YZ      -0.599100
     31 O32          6.0630     3.5030    -0.6960 oh         1 3YZ      -0.636000
     32 O2           0.5220    -4.1520    -0.7220 os         1 3YZ      -0.349100
     33 H1          -9.0500    -0.3710     0.4130 ha         1 3YZ       0.122000
     34 H2          -7.2410    -2.0930    -0.0200 ha         1 3YZ       0.120000
     35 H3          -4.3860    -2.3980    -0.1110 ha         1 3YZ       0.209000
     36 H4           1.6020     0.7430     0.9980 ha         1 3YZ       0.141000
     37 H5           3.0020    -3.1880    -0.1640 ha         1 3YZ       0.131000
     38 H6          -8.3810     1.9960     0.8980 h4         1 3YZ       0.018100
     39 H8          -2.4890     4.9280    -1.4840 hc         1 3YZ       0.072450
     40 H9          -2.3680     2.7610    -2.7760 hc         1 3YZ       0.072450
     41 H10         -1.3430     2.0330    -1.4470 hc         1 3YZ       0.072450
     42 H11          5.0570     0.6260    -2.1470 hc         1 3YZ       0.051700
     43 H12          4.5020     2.2650    -2.4490 hc         1 3YZ       0.051700
     44 H13          3.5330     2.4070    -0.1520 h1         1 3YZ       0.061700
     45 H14          2.9170     0.9930    -1.0170 h1         1 3YZ       0.061700
     46 H15          5.9370     0.3940     1.9420 h1         1 3YZ       0.078200
     47 H16          5.4110     2.0440     1.6100 h1         1 3YZ       0.078200
     48 H17         -4.2370     3.1630    -1.1620 hc         1 3YZ       0.091700
     49 H18          6.9150     0.2210    -0.3550 h1         1 3YZ       0.024700
     50 H19          6.9700     2.0840    -1.9100 h1         1 3YZ       0.027700
     51 H23          2.0480    -5.3800     0.0270 h1         1 3YZ       0.045033
     52 H24          1.0340    -6.1120    -1.2330 h1         1 3YZ       0.045033
     53 H25          2.2390    -4.8850    -1.6770 h1         1 3YZ       0.045033
     54 H28          8.4740     0.8730     1.1020 hn         1 3YZ       0.396000
     55 H29          8.6310     1.9640    -0.0770 hn         1 3YZ       0.396000
     56 H31          5.9440     4.0280    -1.5160 ho         1 3YZ       0.435000
     57 C26          3.9210    -0.7830     0.7030 c          1 3YZ       0.612700
     58 C24         -2.1250    -2.9160    -1.3290 c3         1 3YZ       0.065900
     59 C19         -3.3470     2.1980     0.5810 c3         1 3YZ       0.101600
     60 H7          -1.4710     4.1890    -0.1540 hc         1 3YZ       0.072450
     61 H20         -2.5140    -3.8120    -0.8280 h1         1 3YZ       0.060367
     62 H21         -2.9360    -2.4090    -1.8660 h1         1 3YZ       0.060367
     63 H22         -1.3740    -3.2140    -2.0700 h1         1 3YZ       0.060367
     64 H26         -2.3530     2.1060     1.0290 h1         1 3YZ       0.083700
     65 H27         -3.9290     2.8060     1.2860 h1         1 3YZ       0.083700
@<TRIPOS>BOND
     1     1     2 ar  
     2     1     6 ar  
     3     1    33 1   
     4     2     7 ar  
     5     2    34 1   
     6     3     7 1   
     7     3    12 2   
     8     3    35 1   
     9     4     8 ar  
    10     4     9 ar  
    11     4    36 1   
    12     5     8 ar  
    13     5    11 ar  
    14     5    37 1   
    15     6    24 ar  
    16     6    38 1   
    17     7    13 ar  
    18     8    57 1   
    19     9    10 ar  
    20     9    25 1   
    21    10    11 ar  
    22    10    26 1   
    23    11    32 1   
    24    12    14 1   
    25    12    27 1   
    26    13    24 ar  
    27    13    27 1   
    28    14    25 2   
    29    14    26 1   
    30    15    16 1   
    31    15    20 1   
    32    15    39 1   
    33    15    60 1   
    34    16    20 1   
    35    16    40 1   
    36    16    41 1   
    37    17    18 1   
    38    17    22 1   
    39    17    42 1   
    40    17    43 1   
    41    18    28 1   
    42    18    44 1   
    43    18    45 1   
    44    19    21 1   
    45    19    28 1   
    46    19    46 1   
    47    19    47 1   
    48    20    48 1   
    49    20    59 1   
    50    21    22 1   
    51    21    29 1   
    52    21    49 1   
    53    22    31 1   
    54    22    50 1   
    55    23    32 1   
    56    23    51 1   
    57    23    52 1   
    58    23    53 1   
    59    26    58 1   
    60    27    59 1   
    61    28    57 1   
    62    29    54 1   
    63    29    55 1   
    64    30    57 2   
    65    31    56 1   
    66    58    61 1   
    67    58    62 1   
    68    58    63 1   
    69    59    64 1   
    70    59    65 1   
@<TRIPOS>SUBSTRUCTURE
     1 3YZ         1 TEMP              0 ****  ****    0 ROOT
