@<TRIPOS>MOLECULE
3Z0
   60    64     1     0     0
SMALL
bcc


@<TRIPOS>ATOM
      1 C8          -7.8360     0.3820     0.8570 ca         1 3Z0      -0.281300
      2 C7          -6.9130    -0.6360     1.0060 ca         1 3Z0      -0.040000
      3 C5          -4.3510    -1.0500     0.7210 cc         1 3Z0      -0.159200
      4 C15          1.4360     0.2710     0.8260 ca         1 3Z0      -0.075000
      5 C17          2.2920    -1.7850    -0.1580 ca         1 3Z0      -0.178000
      6 C9          -7.4140     1.6500     0.4360 ca         1 3Z0       0.427200
      7 C6          -5.5800    -0.3400     0.7210 ca         1 3Z0      -0.208100
      8 C16          2.4930    -0.5470     0.4850 ca         1 3Z0      -0.124600
      9 C14          0.1520    -0.1690     0.4970 ca         1 3Z0       0.089400
     10 C21         -0.0480    -1.3850    -0.1690 ca         1 3Z0      -0.096200
     11 C18          1.0270    -2.2190    -0.5120 ca         1 3Z0       0.144100
     12 C4          -3.3840    -0.1590     0.3320 cd         1 3Z0      -0.091700
     13 C11         -5.2840     0.9800     0.3140 ca         1 3Z0       0.439800
     14 C12         -1.9490    -0.3840     0.2390 cd         1 3Z0       0.480100
     15 C28          4.8770     1.8480    -1.6330 c6         1 3Z0      -0.101400
     16 C29          6.2640     2.2590    -1.1550 c6         1 3Z0      -0.077400
     17 C27          3.8710     1.8520    -0.4880 c6         1 3Z0       0.098000
     18 C32          5.6520     1.4460     1.1100 c6         1 3Z0       0.087000
     19 C30          6.7150     1.3930     0.0150 c6         1 3Z0       0.138500
     20 C1          -2.9740     2.0430    -1.9620 c3         1 3Z0      -0.112100
     21 C20          1.8240    -4.2250    -1.4880 c3         1 3Z0       0.126700
     22 N10         -6.1570     1.9640     0.1620 nb         1 3Z0      -0.681000
     23 N13         -1.0520     0.4280     0.7390 nc         1 3Z0      -0.569100
     24 N22         -1.4060    -1.4960    -0.3370 na         1 3Z0      -0.117300
     25 N3          -3.9420     1.0790     0.0960 na         1 3Z0      -0.132100
     26 N26          4.3540     1.0250     0.6110 n          1 3Z0      -0.464800
     27 N31          7.9690     1.8880     0.5560 n8         1 3Z0      -0.888800
     28 O25          4.5370    -1.0300     1.5420 o          1 3Z0      -0.598100
     29 O19          0.7490    -3.3730    -1.1390 os         1 3Z0      -0.325900
     30 H1          -8.8850     0.2140     1.0590 ha         1 3Z0       0.140000
     31 H2          -7.2150    -1.6240     1.3260 ha         1 3Z0       0.138000
     32 H3          -4.1880    -2.0760     1.0090 ha         1 3Z0       0.159000
     33 H4           1.5830     1.2140     1.3370 ha         1 3Z0       0.158000
     34 H5           3.1580    -2.3950    -0.3780 ha         1 3Z0       0.149000
     35 H6          -8.1430     2.4430     0.3180 h4         1 3Z0       0.018100
     36 H8           4.9130     0.8450    -2.0700 hc         1 3Z0       0.048200
     37 H9           6.9850     2.1930    -1.9750 hc         1 3Z0       0.049200
     38 H10          6.2470     3.3050    -0.8280 hc         1 3Z0       0.049200
     39 H11          3.7260     2.8710    -0.1170 h1         1 3Z0       0.057700
     40 H12          2.9060     1.4970    -0.8360 h1         1 3Z0       0.057700
     41 H13          5.9360     0.8270     1.9590 h1         1 3Z0       0.068700
     42 H14          5.5630     2.4780     1.4680 h1         1 3Z0       0.068700
     43 H15          6.7800     0.3500    -0.3350 h1         1 3Z0       0.027700
     44 H16         -2.5480     2.9590    -2.3710 hc         1 3Z0       0.044033
     45 H17         -2.2490     1.2430    -2.1190 hc         1 3Z0       0.044033
     46 H18         -3.8740     1.8060    -2.5280 hc         1 3Z0       0.044033
     47 H22          2.3710    -4.5680    -0.6070 h1         1 3Z0       0.045033
     48 H23          1.3850    -5.0830    -1.9890 h1         1 3Z0       0.045033
     49 H24          2.5230    -3.7360    -2.1710 h1         1 3Z0       0.045033
     50 H27          8.3130     1.2480     1.2610 hn         1 3Z0       0.342800
     51 H28          8.6720     1.8920    -0.1730 hn         1 3Z0       0.342800
     52 C24          3.8890    -0.2070     0.9070 c          1 3Z0       0.682700
     53 C23         -2.1060    -2.5360    -1.0670 c3         1 3Z0       0.036600
     54 C2          -3.2910     2.2390    -0.4880 c3         1 3Z0       0.042300
     55 H7           4.5260     2.5220    -2.4170 hc         1 3Z0       0.048200
     56 H19         -2.1740    -3.4500    -0.4810 h1         1 3Z0       0.060033
     57 H20         -3.1090    -2.1920    -1.2990 h1         1 3Z0       0.060033
     58 H21         -1.5920    -2.7450    -2.0000 h1         1 3Z0       0.060033
     59 H25         -2.3890     2.4620     0.0780 h1         1 3Z0       0.081200
     60 H26         -3.9750     3.0750    -0.3570 h1         1 3Z0       0.081200
@<TRIPOS>BOND
     1     1     2 ar  
     2     1     6 ar  
     3     1    30 1   
     4     2     7 ar  
     5     2    31 1   
     6     3     7 1   
     7     3    12 2   
     8     3    32 1   
     9     4     8 ar  
    10     4     9 ar  
    11     4    33 1   
    12     5     8 ar  
    13     5    11 ar  
    14     5    34 1   
    15     6    22 ar  
    16     6    35 1   
    17     7    13 ar  
    18     8    52 1   
    19     9    10 ar  
    20     9    23 1   
    21    10    11 ar  
    22    10    24 1   
    23    11    29 1   
    24    12    14 1   
    25    12    25 1   
    26    13    22 ar  
    27    13    25 1   
    28    14    23 2   
    29    14    24 1   
    30    15    16 1   
    31    15    17 1   
    32    15    36 1   
    33    15    55 1   
    34    16    19 1   
    35    16    37 1   
    36    16    38 1   
    37    17    26 1   
    38    17    39 1   
    39    17    40 1   
    40    18    19 1   
    41    18    26 1   
    42    18    41 1   
    43    18    42 1   
    44    19    27 1   
    45    19    43 1   
    46    20    44 1   
    47    20    45 1   
    48    20    46 1   
    49    20    54 1   
    50    21    29 1   
    51    21    47 1   
    52    21    48 1   
    53    21    49 1   
    54    24    53 1   
    55    25    54 1   
    56    26    52 1   
    57    27    50 1   
    58    27    51 1   
    59    28    52 2   
    60    53    56 1   
    61    53    57 1   
    62    53    58 1   
    63    54    59 1   
    64    54    60 1   
@<TRIPOS>SUBSTRUCTURE
     1 3Z0         1 TEMP              0 ****  ****    0 ROOT
