@<TRIPOS>MOLECULE
3Z0
   60    64     1     0     0
SMALL
No Charge or Current Charge


@<TRIPOS>ATOM
      1 C8          -7.9420     0.1850     0.2380 ca         1 3Z0      -0.198000
      2 C7          -6.9340    -0.7820     0.0830 ca         1 3Z0      -0.022000
      3 C5          -4.3970    -1.0510     0.0030 cc         1 3Z0      -0.209200
      4 C15          1.4820     0.1550     0.4920 ca         1 3Z0      -0.057000
      5 C17          2.2820    -2.1120     0.0620 ca         1 3Z0      -0.160000
      6 C9          -7.5770     1.5340     0.4260 ca         1 3Z0       0.361900
      7 C6          -5.6170    -0.3130     0.1280 ca         1 3Z0      -0.142800
      8 C16          2.5610    -0.7540     0.3720 ca         1 3Z0      -0.124600
      9 C14          0.1770    -0.2920     0.2500 ca         1 3Z0       0.089400
     10 C21         -0.0750    -1.5880    -0.0970 ca         1 3Z0      -0.096200
     11 C18          0.9550    -2.5470    -0.1780 ca         1 3Z0       0.144100
     12 C4          -3.3660    -0.1210     0.1050 cd         1 3Z0      -0.091700
     13 C11         -5.3220     1.0220     0.3170 ca         1 3Z0       0.374500
     14 C12         -1.9420    -0.4470     0.0600 cd         1 3Z0       0.480100
     15 C28          4.9280     1.8430    -1.9250 c6         1 3Z0      -0.101400
     16 C29          6.2480     2.4490    -1.3930 c6         1 3Z0      -0.077400
     17 C27          3.8550     1.7530    -0.8120 c6         1 3Z0       0.098000
     18 C32          5.6310     1.5860     0.9200 c6         1 3Z0       0.087000
     19 C30          6.7490     1.6580    -0.1600 c6         1 3Z0       0.138500
     20 C1          -2.8630     3.0700    -0.9360 c3         1 3Z0      -0.112100
     21 C20          1.6550    -4.8890    -0.5490 c3         1 3Z0       0.149900
     22 N10         -6.2890     1.9570     0.4670 nb         1 3Z0      -0.681000
     23 N13         -0.9800     0.4510     0.3530 nc         1 3Z0      -0.569100
     24 N22         -1.4350    -1.7260    -0.2820 na         1 3Z0      -0.146600
     25 N3          -3.9350     1.1710     0.3200 na         1 3Z0      -0.161400
     26 N26          4.3610     1.0150     0.3820 n          1 3Z0      -0.397800
     27 N31          7.9890     2.2670     0.3710 n8         1 3Z0      -0.999200
     28 O25          4.7780    -1.0980     1.1760 o          1 3Z0      -0.598100
     29 O19          0.6490    -3.8640    -0.4630 os         1 3Z0      -0.349100
     30 H1          -8.9900    -0.0970     0.2150 ha         1 3Z0       0.122000
     31 H2          -7.1650    -1.8350    -0.0640 ha         1 3Z0       0.120000
     32 H3          -4.3090    -2.1290    -0.0880 ha         1 3Z0       0.209000
     33 H4           1.6450     1.1880     0.7900 ha         1 3Z0       0.140000
     34 H5           3.1100    -2.8130     0.0080 ha         1 3Z0       0.131000
     35 H6          -8.3420     2.3010     0.5490 h4         1 3Z0       0.018100
     36 H8           5.1190     0.8390    -2.3270 hc         1 3Z0       0.048200
     37 H9           7.0070     2.4380    -2.1870 hc         1 3Z0       0.049200
     38 H10          6.0870     3.5020    -1.1240 hc         1 3Z0       0.049200
     39 H11          3.5570     2.7660    -0.5050 h1         1 3Z0       0.057700
     40 H12          2.9680     1.2660    -1.2360 h1         1 3Z0       0.057700
     41 H13          5.9820     0.9950     1.7780 h1         1 3Z0       0.068700
     42 H14          5.4260     2.5980     1.2960 h1         1 3Z0       0.068700
     43 H15          6.9990     0.6340    -0.4770 h1         1 3Z0       0.027700
     44 H16         -2.3880     4.0490    -0.8060 hc         1 3Z0       0.044033
     45 H17         -2.1510     2.4050    -1.4390 hc         1 3Z0       0.044033
     46 H18         -3.7380     3.1940    -1.5860 hc         1 3Z0       0.044033
     47 H22          2.1910    -4.9910     0.4030 h1         1 3Z0       0.045033
     48 H23          1.1930    -5.8560    -0.7850 h1         1 3Z0       0.045033
     49 H24          2.3810    -4.6580    -1.3400 h1         1 3Z0       0.045033
     50 H27          8.3920     1.6380     1.0770 hn         1 3Z0       0.398000
     51 H28          8.6980     2.2720    -0.3720 hn         1 3Z0       0.398000
     52 C24          3.9880    -0.3230     0.6480 c          1 3Z0       0.615700
     53 C23         -2.0170    -2.7320    -1.1930 c3         1 3Z0       0.065900
     54 C2          -3.2830     2.4930     0.4300 c3         1 3Z0       0.071600
     55 H7           4.5470     2.4470    -2.7600 hc         1 3Z0       0.048200
     56 H19         -2.4080    -3.5760    -0.6120 h1         1 3Z0       0.060033
     57 H20         -2.8220    -2.2840    -1.7870 h1         1 3Z0       0.060033
     58 H21         -1.2540    -3.0970    -1.8920 h1         1 3Z0       0.060033
     59 H25         -2.4110     2.4180     1.0890 h1         1 3Z0       0.081200
     60 H26         -3.9780     3.1940     0.9100 h1         1 3Z0       0.081200
@<TRIPOS>BOND
     1     1     2 ar  
     2     1     6 ar  
     3     1    30 1   
     4     2     7 ar  
     5     2    31 1   
     6     3     7 1   
     7     3    12 2   
     8     3    32 1   
     9     4     8 ar  
    10     4     9 ar  
    11     4    33 1   
    12     5     8 ar  
    13     5    11 ar  
    14     5    34 1   
    15     6    22 ar  
    16     6    35 1   
    17     7    13 ar  
    18     8    52 1   
    19     9    10 ar  
    20     9    23 1   
    21    10    11 ar  
    22    10    24 1   
    23    11    29 1   
    24    12    14 1   
    25    12    25 1   
    26    13    22 ar  
    27    13    25 1   
    28    14    23 2   
    29    14    24 1   
    30    15    16 1   
    31    15    17 1   
    32    15    36 1   
    33    15    55 1   
    34    16    19 1   
    35    16    37 1   
    36    16    38 1   
    37    17    26 1   
    38    17    39 1   
    39    17    40 1   
    40    18    19 1   
    41    18    26 1   
    42    18    41 1   
    43    18    42 1   
    44    19    27 1   
    45    19    43 1   
    46    20    44 1   
    47    20    45 1   
    48    20    46 1   
    49    20    54 1   
    50    21    29 1   
    51    21    47 1   
    52    21    48 1   
    53    21    49 1   
    54    24    53 1   
    55    25    54 1   
    56    26    52 1   
    57    27    50 1   
    58    27    51 1   
    59    28    52 2   
    60    53    56 1   
    61    53    57 1   
    62    53    58 1   
    63    54    59 1   
    64    54    60 1   
@<TRIPOS>SUBSTRUCTURE
     1 3Z0         1 TEMP              0 ****  ****    0 ROOT
