@<TRIPOS>MOLECULE
3Z1
   57    60     1     0     0
SMALL
abcg2


@<TRIPOS>ATOM
      1 C19         10.3350     2.1100    -0.7880 c3         1 3Z1       0.235100
      2 N18          9.4710     1.5100     0.1970 nu         1 3Z1      -0.925100
      3 C16          8.2220     1.0860    -0.0430 ca         1 3Z1       0.390900
      4 N17          7.5340     0.5710     0.9610 nb         1 3Z1      -0.266000
      5 N15          7.7790     1.2320    -1.3230 nb         1 3Z1      -0.227000
      6 C14          6.5700     0.8240    -1.5760 ca         1 3Z1       0.175900
      7 C13          5.7270     0.2540    -0.5980 ca         1 3Z1      -0.213000
      8 C9           4.4170    -0.1870    -0.8610 ca         1 3Z1      -0.047000
      9 C12          6.2850     0.1500     0.6970 ca         1 3Z1       0.092000
     10 C10          5.4840    -0.4120     1.7180 ca         1 3Z1      -0.119000
     11 C11          4.2130    -0.8360     1.4380 ca         1 3Z1      -0.059000
     12 C8           3.6530    -0.7360     0.1390 cp         1 3Z1      -0.071000
     13 C1           2.2690    -1.2090    -0.1200 cp         1 3Z1      -0.138000
     14 C2           1.1980    -0.3160     0.0970 ca         1 3Z1       0.387000
     15 N20          1.4540     0.9360     0.5800 nv         1 3Z1      -1.082000
     16 C6           2.0460    -2.5060    -0.5730 ca         1 3Z1       0.014700
     17 C7           3.1920    -3.4480    -0.7950 c3         1 3Z1      -0.055800
     18 C5           0.7390    -2.9290    -0.8170 ca         1 3Z1      -0.179000
     19 C4          -0.3170    -2.0720    -0.5890 ca         1 3Z1      -0.036000
     20 C3          -0.1220    -0.7720    -0.1230 ca         1 3Z1      -0.249600
     21 C21         -1.2820     0.1330     0.0810 c          1 3Z1       0.639700
     22 O22         -1.2200     1.3410    -0.1110 o          1 3Z1      -0.618100
     23 N23         -2.4230    -0.4720     0.4990 ns         1 3Z1      -0.149000
     24 C24         -3.6910     0.1270     0.5920 ca         1 3Z1      -0.075000
     25 C29         -4.7980    -0.6250     0.2130 ca         1 3Z1      -0.067000
     26 C25         -3.8910     1.4150     1.0720 ca         1 3Z1      -0.039000
     27 C26         -5.1690     1.9470     1.1500 ca         1 3Z1      -0.193000
     28 C27         -6.2780     1.1990     0.7670 ca         1 3Z1       0.179100
     29 O30         -7.5400     1.6430     0.8140 os         1 3Z1      -0.331100
     30 C31         -7.7880     2.9570     1.2820 c3         1 3Z1       0.150900
     31 C28         -6.0800    -0.1100     0.3040 ca         1 3Z1      -0.222300
     32 C32         -7.2580    -0.9350    -0.1110 c3         1 3Z1       0.370300
     33 F34         -6.8960    -2.1590    -0.5140 f          1 3Z1      -0.113333
     34 F35         -8.1370    -1.1070     0.8850 f          1 3Z1      -0.113333
     35 F33         -7.9300    -0.3820    -1.1310 f          1 3Z1      -0.113333
     36 H1          11.2930     2.3080    -0.3170 h1         1 3Z1       0.041367
     37 H2          10.5040     1.4500    -1.6390 h1         1 3Z1       0.041367
     38 H3           9.9390     3.0540    -1.1660 h1         1 3Z1       0.041367
     39 H4           9.8010     1.4290     1.1440 hn         1 3Z1       0.509000
     40 H5           6.2120     0.9380    -2.5950 h4         1 3Z1       0.021100
     41 H6           4.0190    -0.0910    -1.8650 ha         1 3Z1       0.118000
     42 H7           5.8910    -0.5000     2.7170 ha         1 3Z1       0.134000
     43 H8           3.6120    -1.2670     2.2300 ha         1 3Z1       0.122000
     44 H9           2.3990     1.2720     0.4970 hn         1 3Z1       0.483000
     45 H10          0.7530     1.6360     0.4060 hn         1 3Z1       0.483000
     46 H11          3.6890    -3.6920     0.1470 hc         1 3Z1       0.049033
     47 H12          2.8510    -4.3800    -1.2420 hc         1 3Z1       0.049033
     48 H13          3.9510    -3.0180    -1.4480 hc         1 3Z1       0.049033
     49 H14          0.5520    -3.9280    -1.1890 ha         1 3Z1       0.119000
     50 H15         -1.3180    -2.4220    -0.8110 ha         1 3Z1       0.107000
     51 H16         -2.3910    -1.4630     0.6760 hn         1 3Z1       0.159000
     52 H17         -4.6410    -1.6300    -0.1590 ha         1 3Z1       0.130000
     53 H18         -3.0590     2.0190     1.4010 ha         1 3Z1       0.142000
     54 H19         -5.2830     2.9540     1.5250 ha         1 3Z1       0.126000
     55 H20         -7.4570     3.0870     2.3150 h1         1 3Z1       0.046700
     56 H21         -7.3040     3.7080     0.6540 h1         1 3Z1       0.046700
     57 H22         -8.8640     3.0980     1.2370 h1         1 3Z1       0.046700
@<TRIPOS>BOND
     1     1     2 1   
     2     1    36 1   
     3     1    37 1   
     4     1    38 1   
     5     2     3 1   
     6     2    39 1   
     7     3     4 ar  
     8     3     5 ar  
     9     4     9 ar  
    10     5     6 ar  
    11     6     7 ar  
    12     6    40 1   
    13     7     8 ar  
    14     7     9 ar  
    15     8    12 ar  
    16     8    41 1   
    17     9    10 ar  
    18    10    11 ar  
    19    10    42 1   
    20    11    12 ar  
    21    11    43 1   
    22    12    13 1   
    23    13    14 ar  
    24    13    16 ar  
    25    14    15 1   
    26    14    20 ar  
    27    15    44 1   
    28    15    45 1   
    29    16    17 1   
    30    16    18 ar  
    31    17    46 1   
    32    17    47 1   
    33    17    48 1   
    34    18    19 ar  
    35    18    49 1   
    36    19    20 ar  
    37    19    50 1   
    38    20    21 1   
    39    21    22 2   
    40    21    23 1   
    41    23    24 1   
    42    23    51 1   
    43    24    25 ar  
    44    24    26 ar  
    45    25    31 ar  
    46    25    52 1   
    47    26    27 ar  
    48    26    53 1   
    49    27    28 ar  
    50    27    54 1   
    51    28    29 1   
    52    28    31 ar  
    53    29    30 1   
    54    30    55 1   
    55    30    56 1   
    56    30    57 1   
    57    31    32 1   
    58    32    33 1   
    59    32    34 1   
    60    32    35 1   
@<TRIPOS>SUBSTRUCTURE
     1 3Z1         1 TEMP              0 ****  ****    0 ROOT
