@<TRIPOS>MOLECULE
3Z1
   57    60     1     0     0
SMALL
No Charge or Current Charge


@<TRIPOS>ATOM
      1 C19         10.8680     1.5990    -0.5600 c3         1 3Z1       0.235100
      2 N18          9.7760     1.2010     0.3490 nu         1 3Z1      -0.925100
      3 C16          8.4780     0.8520     0.0060 ca         1 3Z1       0.390900
      4 N17          7.6800     0.5280     1.0390 nb         1 3Z1      -0.266000
      5 N15          8.1450     0.8680    -1.2990 nb         1 3Z1      -0.227000
      6 C14          6.8770     0.5240    -1.5930 ca         1 3Z1       0.175900
      7 C13          5.9600     0.1680    -0.5870 ca         1 3Z1      -0.213000
      8 C9           4.6370    -0.1920    -0.9010 ca         1 3Z1      -0.047000
      9 C12          6.4080     0.1810     0.7530 ca         1 3Z1       0.092000
     10 C10          5.5050    -0.1720     1.7700 ca         1 3Z1      -0.119000
     11 C11          4.1820    -0.5330     1.4600 ca         1 3Z1      -0.059000
     12 C8           3.7270    -0.5480     0.1210 cp         1 3Z1      -0.071000
     13 C1           2.3190    -0.9410    -0.2090 cp         1 3Z1      -0.138000
     14 C2           1.2220    -0.1040     0.1400 ca         1 3Z1       0.387000
     15 N20          1.4840     1.0660     0.7950 nv         1 3Z1      -1.082000
     16 C6           2.0640    -2.1650    -0.8790 ca         1 3Z1       0.014700
     17 C7           3.1900    -3.1190    -1.2660 c3         1 3Z1      -0.055800
     18 C5           0.7440    -2.5230    -1.1890 ca         1 3Z1      -0.179000
     19 C4          -0.3280    -1.6910    -0.8450 ca         1 3Z1      -0.036000
     20 C3          -0.1100    -0.4640    -0.1740 ca         1 3Z1      -0.249600
     21 C21         -1.2920     0.4270     0.1760 c          1 3Z1       0.639700
     22 O22         -1.1670     1.6260     0.4130 o          1 3Z1      -0.618100
     23 N23         -2.5310    -0.2080     0.1710 ns         1 3Z1      -0.149000
     24 C24         -3.8600     0.2580     0.3940 ca         1 3Z1      -0.075000
     25 C29         -4.8880    -0.7030     0.4140 ca         1 3Z1      -0.067000
     26 C25         -4.1910     1.6150     0.5850 ca         1 3Z1      -0.039000
     27 C26         -5.5260     1.9950     0.7970 ca         1 3Z1      -0.193000
     28 C27         -6.5540     1.0290     0.8200 ca         1 3Z1       0.179100
     29 O30         -7.8750     1.3820     1.0260 os         1 3Z1      -0.331100
     30 C31         -8.2910     2.7440     1.2320 c3         1 3Z1       0.150900
     31 C28         -6.2370    -0.3340     0.6260 ca         1 3Z1      -0.222300
     32 C32         -7.3480    -1.3970     0.6460 c3         1 3Z1       0.370300
     33 F34         -6.8830    -2.6520     0.4460 f          1 3Z1      -0.113333
     34 F35         -8.0010    -1.4170     1.8310 f          1 3Z1      -0.113333
     35 F33         -8.2720    -1.1750    -0.3160 f          1 3Z1      -0.113333
     36 H1          11.7820     1.8170     0.0080 h1         1 3Z1       0.041367
     37 H2          11.0880     0.7940    -1.2740 h1         1 3Z1       0.041367
     38 H3          10.5900     2.4990    -1.1250 h1         1 3Z1       0.041367
     39 H4           9.9810     1.1730     1.3510 hn         1 3Z1       0.509000
     40 H5           6.5980     0.5340    -2.6460 h4         1 3Z1       0.021100
     41 H6           4.3050    -0.1960    -1.9380 ha         1 3Z1       0.118000
     42 H7           5.8310    -0.1680     2.8080 ha         1 3Z1       0.134000
     43 H8           3.4990    -0.8070     2.2620 ha         1 3Z1       0.122000
     44 H9           2.4360     1.4180     0.7830 hn         1 3Z1       0.483000
     45 H10          0.7280     1.7520     0.8320 hn         1 3Z1       0.483000
     46 H11          3.9030    -3.2500    -0.4420 hc         1 3Z1       0.049033
     47 H12          2.8100    -4.1140    -1.5240 hc         1 3Z1       0.049033
     48 H13          3.7430    -2.7420    -2.1340 hc         1 3Z1       0.049033
     49 H14          0.5420    -3.4580    -1.7080 ha         1 3Z1       0.119000
     50 H15         -1.3270    -2.0130    -1.1310 ha         1 3Z1       0.107000
     51 H16         -2.4780    -1.1990    -0.0200 hn         1 3Z1       0.159000
     52 H17         -4.6250    -1.7480     0.2620 ha         1 3Z1       0.130000
     53 H18         -3.4340     2.3930     0.5680 ha         1 3Z1       0.142000
     54 H19         -5.7410     3.0500     0.9390 ha         1 3Z1       0.126000
     55 H20         -7.8120     3.1680     2.1240 h1         1 3Z1       0.046700
     56 H21         -8.0360     3.3660     0.3650 h1         1 3Z1       0.046700
     57 H22         -9.3770     2.7910     1.3760 h1         1 3Z1       0.046700
@<TRIPOS>BOND
     1     1     2 1   
     2     1    36 1   
     3     1    37 1   
     4     1    38 1   
     5     2     3 1   
     6     2    39 1   
     7     3     4 ar  
     8     3     5 ar  
     9     4     9 ar  
    10     5     6 ar  
    11     6     7 ar  
    12     6    40 1   
    13     7     8 ar  
    14     7     9 ar  
    15     8    12 ar  
    16     8    41 1   
    17     9    10 ar  
    18    10    11 ar  
    19    10    42 1   
    20    11    12 ar  
    21    11    43 1   
    22    12    13 1   
    23    13    14 ar  
    24    13    16 ar  
    25    14    15 1   
    26    14    20 ar  
    27    15    44 1   
    28    15    45 1   
    29    16    17 1   
    30    16    18 ar  
    31    17    46 1   
    32    17    47 1   
    33    17    48 1   
    34    18    19 ar  
    35    18    49 1   
    36    19    20 ar  
    37    19    50 1   
    38    20    21 1   
    39    21    22 2   
    40    21    23 1   
    41    23    24 1   
    42    23    51 1   
    43    24    25 ar  
    44    24    26 ar  
    45    25    31 ar  
    46    25    52 1   
    47    26    27 ar  
    48    26    53 1   
    49    27    28 ar  
    50    27    54 1   
    51    28    29 1   
    52    28    31 ar  
    53    29    30 1   
    54    30    55 1   
    55    30    56 1   
    56    30    57 1   
    57    31    32 1   
    58    32    33 1   
    59    32    34 1   
    60    32    35 1   
@<TRIPOS>SUBSTRUCTURE
     1 3Z1         1 TEMP              0 ****  ****    0 ROOT
