@<TRIPOS>MOLECULE
3Z2
   69    74     1     0     0
SMALL
bcc


@<TRIPOS>ATOM
      1 N1          -6.3720    -0.2010     2.8210 nb         1 3Z2      -0.686000
      2 C4          -6.8600     0.1450     1.6070 ca         1 3Z2       0.434600
      3 C5          -6.0380     0.3640     0.4800 ca         1 3Z2      -0.158300
      4 C6          -6.6210     0.7300    -0.7580 ca         1 3Z2      -0.172000
      5 C7          -5.0760    -0.3360     2.9370 ca         1 3Z2       0.443200
      6 C8          -4.1560    -0.1470     1.8940 ca         1 3Z2      -0.345300
      7 C13         -1.8040     1.4790     0.1270 ca         1 3Z2      -0.072000
      8 C15          0.1870     0.1920    -0.1890 ca         1 3Z2       0.568200
      9 C17          2.4140    -0.9150    -0.3150 c          1 3Z2       0.732300
     10 C20          4.3480     0.7390     0.2120 c          1 3Z2       0.719700
     11 C22          6.6740     1.6030     0.2200 ca         1 3Z2       0.039600
     12 C24          7.7260     3.4770     1.2760 ca         1 3Z2      -0.120000
     13 C26          8.3850     2.8150    -0.9410 ca         1 3Z2      -0.120000
     14 C28          4.9310    -2.8650    -0.4530 ca         1 3Z2      -0.034800
     15 C2          -8.8170     0.6440     0.2690 ca         1 3Z2       0.146100
     16 C3          -8.2610     0.2940     1.4690 ca         1 3Z2      -0.267300
     17 C1          -7.9760     0.8700    -0.8700 ca         1 3Z2       0.115100
     18 O1          -8.6320     1.2160    -1.9860 os         1 3Z2      -0.296900
     19 C11         -7.8710     1.4760    -3.1510 c3         1 3Z2       0.120700
     20 C9          -4.6440     0.2040     0.6600 ca         1 3Z2       0.183100
     21 O3          -3.8810     0.4110    -0.4350 os         1 3Z2      -0.235200
     22 C12         -2.5150     0.3700    -0.3130 ca         1 3Z2      -0.078200
     23 C14         -0.4320     1.3920     0.1900 ca         1 3Z2      -0.291300
     24 C16         -1.8220    -0.7680    -0.6710 ca         1 3Z2       0.444200
     25 N2          -0.4980    -0.8550    -0.6160 nb         1 3Z2      -0.679000
     26 O4           2.0670    -2.0300    -0.6530 o          1 3Z2      -0.548100
     27 C18          3.8210    -0.5680    -0.0850 cc         1 3Z2      -0.390400
     28 N5           5.7120     0.5680     0.2600 n          1 3Z2      -0.237400
     29 C23          6.8060     2.4390     1.3190 ca         1 3Z2      -0.116500
     30 C25          8.5180     3.6630     0.1510 ca         1 3Z2      -0.119000
     31 C27          7.4520     1.7890    -0.9170 ca         1 3Z2      -0.116500
     32 N4           6.0370    -0.7300    -0.0450 na         1 3Z2      -0.386400
     33 C19          4.8980    -1.4170    -0.2060 cd         1 3Z2       0.260800
     34 C29          5.5320    -3.3730    -1.5970 ca         1 3Z2      -0.207300
     35 C30          5.5540    -4.7490    -1.7750 ca         1 3Z2       0.403200
     36 N6           5.0380    -5.6070    -0.9050 nb         1 3Z2      -0.648000
     37 C31          4.4700    -5.1110     0.1890 ca         1 3Z2       0.403200
     38 C32          4.3850    -3.7560     0.4610 ca         1 3Z2      -0.207300
     39 H1           2.0240     1.0100     0.1680 hn         1 3Z2       0.357500
     40 H2          -5.9810     0.8970    -1.6120 ha         1 3Z2       0.154000
     41 H3          -4.7000    -0.6150     3.9150 h4         1 3Z2       0.016100
     42 H4          -3.1010    -0.2850     2.0860 ha         1 3Z2       0.152000
     43 H5         -12.0160     0.7920     0.7290 h1         1 3Z2       0.044033
     44 H6         -10.9660    -0.4030     1.5140 h1         1 3Z2       0.044033
     45 H7         -10.8230     1.3190     1.9330 h1         1 3Z2       0.044033
     46 H8          -2.3110     2.3920     0.4120 ha         1 3Z2       0.151000
     47 H9           7.4280    -1.1330     1.4710 h1         1 3Z2       0.065367
     48 H10          7.3700    -2.3040     0.1410 h1         1 3Z2       0.065367
     49 H11          8.1330    -0.7390    -0.1150 h1         1 3Z2       0.065367
     50 H12          7.8300     4.1340     2.1290 ha         1 3Z2       0.139000
     51 H13          8.9990     2.9580    -1.8200 ha         1 3Z2       0.139000
     52 H14         -8.8680     0.1220     2.3470 ha         1 3Z2       0.157000
     53 H15         -7.1650     2.2960    -2.9980 h1         1 3Z2       0.042033
     54 H16         -7.3190     0.5920    -3.4790 h1         1 3Z2       0.042033
     55 H17         -8.5790     1.7590    -3.9250 h1         1 3Z2       0.042033
     56 H18          0.1540     2.2360     0.5310 ha         1 3Z2       0.152000
     57 H19         -2.3550    -1.6430    -1.0270 h4         1 3Z2       0.036100
     58 H20          6.2020     2.2750     2.2010 ha         1 3Z2       0.147000
     59 H21          9.2410     4.4670     0.1260 ha         1 3Z2       0.137000
     60 H22          7.3290     1.1390    -1.7750 ha         1 3Z2       0.147000
     61 H23          5.9690    -2.7230    -2.3430 ha         1 3Z2       0.151500
     62 H24          6.0120    -5.1700    -2.6620 h4         1 3Z2       0.025600
     63 H25          4.0590    -5.8280     0.8910 h4         1 3Z2       0.025600
     64 H26          3.9140    -3.4100     1.3700 ha         1 3Z2       0.151500
     65 O2         -10.1240     0.8060     0.0400 os         1 3Z2      -0.293900
     66 N3           1.5690     0.1410    -0.1030 ns         1 3Z2      -0.564400
     67 C10        -11.0180     0.6150     1.1210 c3         1 3Z2       0.119700
     68 O5           3.7810     1.8200     0.3670 o          1 3Z2      -0.640500
     69 C21          7.3190    -1.2500     0.3930 c3         1 3Z2       0.205100
@<TRIPOS>BOND
     1     1     2 ar  
     2     1     5 ar  
     3     2     3 ar  
     4     2    16 ar  
     5     3     4 ar  
     6     3    20 ar  
     7     4    17 ar  
     8     4    40 1   
     9     5     6 ar  
    10     5    41 1   
    11     6    20 ar  
    12     6    42 1   
    13     7    22 ar  
    14     7    23 ar  
    15     7    46 1   
    16     8    23 ar  
    17     8    25 ar  
    18     8    66 1   
    19     9    26 2   
    20     9    27 1   
    21     9    66 1   
    22    10    27 1   
    23    10    28 1   
    24    10    68 2   
    25    11    28 1   
    26    11    29 ar  
    27    11    31 ar  
    28    12    29 ar  
    29    12    30 ar  
    30    12    50 1   
    31    13    30 ar  
    32    13    31 ar  
    33    13    51 1   
    34    14    33 1   
    35    14    34 ar  
    36    14    38 ar  
    37    15    16 ar  
    38    15    17 ar  
    39    15    65 1   
    40    16    52 1   
    41    17    18 1   
    42    18    19 1   
    43    19    53 1   
    44    19    54 1   
    45    19    55 1   
    46    20    21 1   
    47    21    22 1   
    48    22    24 ar  
    49    23    56 1   
    50    24    25 ar  
    51    24    57 1   
    52    27    33 2   
    53    28    32 1   
    54    29    58 1   
    55    30    59 1   
    56    31    60 1   
    57    32    33 1   
    58    32    69 1   
    59    34    35 ar  
    60    34    61 1   
    61    35    36 ar  
    62    35    62 1   
    63    36    37 ar  
    64    37    38 ar  
    65    37    63 1   
    66    38    64 1   
    67    39    66 1   
    68    43    67 1   
    69    44    67 1   
    70    45    67 1   
    71    47    69 1   
    72    48    69 1   
    73    49    69 1   
    74    65    67 1   
@<TRIPOS>SUBSTRUCTURE
     1 3Z2         1 TEMP              0 ****  ****    0 ROOT
