@<TRIPOS>MOLECULE
3Z2
   69    74     1     0     0
SMALL
No Charge or Current Charge


@<TRIPOS>ATOM
      1 N1          -6.4870     1.3770     3.0310 nb         1 3Z2      -0.686000
      2 C4          -6.8830     1.0480     1.7810 ca         1 3Z2       0.304000
      3 C5          -6.0660     0.2890     0.9080 ca         1 3Z2      -0.093000
      4 C6          -6.5170    -0.0350    -0.3900 ca         1 3Z2      -0.154000
      5 C7          -5.2750     0.9660     3.4620 ca         1 3Z2       0.377900
      6 C8          -4.4060     0.2140     2.6670 ca         1 3Z2      -0.262000
      7 C13         -2.0700     0.6360     0.5410 ca         1 3Z2      -0.054000
      8 C15          0.1110    -0.3680     0.2060 ca         1 3Z2       0.502900
      9 C17          2.4120    -0.9510    -0.6200 c          1 3Z2       0.665300
     10 C20          4.2410     0.5120     0.4490 c          1 3Z2       0.577200
     11 C22          6.4830     1.6650     0.6850 ca         1 3Z2       0.039600
     12 C24          7.1270     3.4450     2.2340 ca         1 3Z2      -0.102000
     13 C26          8.3750     3.1280     0.1720 ca         1 3Z2      -0.102000
     14 C28          5.0150    -2.5920    -1.5580 ca         1 3Z2      -0.034800
     15 C2          -8.6050     1.1530     0.0400 ca         1 3Z2       0.146100
     16 C3          -8.1450     1.4720     1.3360 ca         1 3Z2      -0.184000
     17 C1          -7.7880     0.3950    -0.8290 ca         1 3Z2       0.115100
     18 O1          -8.2640     0.0960    -2.0960 os         1 3Z2      -0.320100
     19 C11         -7.5040    -0.6670    -3.0500 c3         1 3Z2       0.143900
     20 C9          -4.7990    -0.1250     1.3660 ca         1 3Z2       0.183100
     21 O3          -3.9720    -0.8800     0.5620 os         1 3Z2      -0.235200
     22 C12         -2.6120    -0.6620     0.4680 ca         1 3Z2      -0.012900
     23 C14         -0.6760     0.7740     0.4220 ca         1 3Z2      -0.208000
     24 C16         -1.7380    -1.7520     0.2690 ca         1 3Z2       0.378900
     25 N2          -0.3940    -1.6170     0.1550 nb         1 3Z2      -0.679000
     26 O4           2.0620    -1.7230    -1.5000 o          1 3Z2      -0.548100
     27 C18          3.8270    -0.6230    -0.3460 cc         1 3Z2      -0.390400
     28 N5           5.6280     0.5590     0.3330 n          1 3Z2      -0.170400
     29 C23          6.2860     2.3710     1.8900 ca         1 3Z2      -0.098500
     30 C25          8.1710     3.8240     1.3750 ca         1 3Z2      -0.101000
     31 C27          7.5360     2.0540    -0.1700 ca         1 3Z2      -0.098500
     32 N4           6.0590    -0.5670    -0.4630 na         1 3Z2      -0.386400
     33 C19          4.9180    -1.2620    -0.9050 cd         1 3Z2       0.260800
     34 C29          6.0420    -2.8520    -2.4900 ca         1 3Z2      -0.124000
     35 C30          6.1430    -4.1210    -3.0840 ca         1 3Z2       0.337900
     36 N6           5.3040    -5.1410    -2.7940 nb         1 3Z2      -0.648000
     37 C31          4.3320    -4.9080    -1.8830 ca         1 3Z2       0.337900
     38 C32          4.1590    -3.6690    -1.2440 ca         1 3Z2      -0.124000
     39 H1           1.9000     0.4070     0.7870 hn         1 3Z2       0.191000
     40 H2          -5.8750    -0.6170    -1.0450 ha         1 3Z2       0.136000
     41 H3          -4.9980     1.2470     4.4770 h4         1 3Z2       0.016100
     42 H4          -3.4460    -0.1020     3.0650 ha         1 3Z2       0.134000
     43 H5         -11.6730     2.5510    -0.1610 h1         1 3Z2       0.044033
     44 H6         -11.0250     1.7920     1.3080 h1         1 3Z2       0.044033
     45 H7         -10.2990     3.2970     0.6800 h1         1 3Z2       0.044033
     46 H8          -2.7030     1.5080     0.6840 ha         1 3Z2       0.133000
     47 H9           7.7250    -0.7450     0.8610 h1         1 3Z2       0.065367
     48 H10          7.2540    -2.2540     0.0460 h1         1 3Z2       0.065367
     49 H11          8.1030    -0.9770    -0.8690 h1         1 3Z2       0.065367
     50 H12          6.9690     3.9820     3.1670 ha         1 3Z2       0.121000
     51 H13          9.1820     3.4230    -0.4960 ha         1 3Z2       0.121000
     52 H14         -8.7550     2.0520     2.0190 ha         1 3Z2       0.139000
     53 H15         -6.5580    -0.1640    -3.2880 h1         1 3Z2       0.042033
     54 H16         -7.2840    -1.6700    -2.6610 h1         1 3Z2       0.042033
     55 H17         -8.0720    -0.7820    -3.9820 h1         1 3Z2       0.042033
     56 H18         -0.2100     1.7540     0.4860 ha         1 3Z2       0.134000
     57 H19         -2.1280    -2.7680     0.2080 h4         1 3Z2       0.036100
     58 H20          5.4910     2.0820     2.5720 ha         1 3Z2       0.129000
     59 H21          8.8210     4.6560     1.6410 ha         1 3Z2       0.119000
     60 H22          7.6970     1.5330    -1.1110 ha         1 3Z2       0.129000
     61 H23          6.7440    -2.0760    -2.7770 ha         1 3Z2       0.133500
     62 H24          6.9230    -4.3280    -3.8170 h4         1 3Z2       0.025600
     63 H25          3.6790    -5.7480    -1.6460 h4         1 3Z2       0.025600
     64 H26          3.3880    -3.5760    -0.4860 ha         1 3Z2       0.133500
     65 O2          -9.8490     1.5640    -0.4130 os         1 3Z2      -0.317100
     66 N3           1.5040    -0.2760     0.1570 ns         1 3Z2      -0.330900
     67 C10        -10.7520     2.3380     0.3960 c3         1 3Z2       0.142900
     68 O5           3.5420     1.3240     1.0420 o          1 3Z2      -0.565000
     69 C21          7.3620    -1.1700    -0.0830 c3         1 3Z2       0.205100
@<TRIPOS>BOND
     1     1     2 ar  
     2     1     5 ar  
     3     2     3 ar  
     4     2    16 ar  
     5     3     4 ar  
     6     3    20 ar  
     7     4    17 ar  
     8     4    40 1   
     9     5     6 ar  
    10     5    41 1   
    11     6    20 ar  
    12     6    42 1   
    13     7    22 ar  
    14     7    23 ar  
    15     7    46 1   
    16     8    23 ar  
    17     8    25 ar  
    18     8    66 1   
    19     9    26 2   
    20     9    27 1   
    21     9    66 1   
    22    10    27 1   
    23    10    28 1   
    24    10    68 2   
    25    11    28 1   
    26    11    29 ar  
    27    11    31 ar  
    28    12    29 ar  
    29    12    30 ar  
    30    12    50 1   
    31    13    30 ar  
    32    13    31 ar  
    33    13    51 1   
    34    14    33 1   
    35    14    34 ar  
    36    14    38 ar  
    37    15    16 ar  
    38    15    17 ar  
    39    15    65 1   
    40    16    52 1   
    41    17    18 1   
    42    18    19 1   
    43    19    53 1   
    44    19    54 1   
    45    19    55 1   
    46    20    21 1   
    47    21    22 1   
    48    22    24 ar  
    49    23    56 1   
    50    24    25 ar  
    51    24    57 1   
    52    27    33 2   
    53    28    32 1   
    54    29    58 1   
    55    30    59 1   
    56    31    60 1   
    57    32    33 1   
    58    32    69 1   
    59    34    35 ar  
    60    34    61 1   
    61    35    36 ar  
    62    35    62 1   
    63    36    37 ar  
    64    37    38 ar  
    65    37    63 1   
    66    38    64 1   
    67    39    66 1   
    68    43    67 1   
    69    44    67 1   
    70    45    67 1   
    71    47    69 1   
    72    48    69 1   
    73    49    69 1   
    74    65    67 1   
@<TRIPOS>SUBSTRUCTURE
     1 3Z2         1 TEMP              0 ****  ****    0 ROOT
