@<TRIPOS>MOLECULE
3Z3
   69    74     1     0     0
SMALL
abcg2


@<TRIPOS>ATOM
      1 C11          5.5540     2.1240     0.8380 ca         1 3Z3      -0.070500
      2 C12          6.0810     3.3250     1.2880 ca         1 3Z3      -0.112000
      3 C13          5.2380     4.3140     1.7780 ca         1 3Z3      -0.087000
      4 C14          3.8650     4.1020     1.8140 ca         1 3Z3      -0.112000
      5 C15          3.3340     2.9070     1.3590 ca         1 3Z3      -0.070500
      6 C5           4.1770     1.9120     0.8700 ca         1 3Z3      -0.079800
      7 C2           3.6140     0.6470     0.3910 cc         1 3Z3       0.262800
      8 N1           4.0440    -0.5300     0.8680 na         1 3Z3      -0.390400
      9 C24          4.6220    -0.7700     2.1800 c3         1 3Z3       0.202100
     10 N2           3.2670    -1.5250     0.3230 n          1 3Z3      -0.185400
     11 C4           3.7260    -2.8590     0.2960 ca         1 3Z3       0.044600
     12 C6           5.0390    -3.1460    -0.0620 ca         1 3Z3      -0.105000
     13 C7           5.4650    -4.4650    -0.0920 ca         1 3Z3      -0.101000
     14 C8           4.5800    -5.4940     0.2060 ca         1 3Z3      -0.108000
     15 C9           3.2680    -5.1990     0.5500 ca         1 3Z3      -0.101000
     16 C10          2.8380    -3.8810     0.6070 ca         1 3Z3      -0.105000
     17 C3           2.3640    -0.9870    -0.5880 c          1 3Z3       0.574200
     18 O1           1.6270    -1.6610    -1.2860 o          1 3Z3      -0.519000
     19 C1           2.5900     0.4410    -0.5140 cd         1 3Z3      -0.412400
     20 C16          2.0110     1.4450    -1.4050 c          1 3Z3       0.640900
     21 O2           2.6400     2.4410    -1.7240 o          1 3Z3      -0.536100
     22 C17          0.6610     1.1940    -1.9650 ca         1 3Z3      -0.228600
     23 C22         -0.4320     0.7470    -1.1960 ca         1 3Z3       0.382000
     24 N3          -0.3640     0.6250     0.1680 nv         1 3Z3      -1.081000
     25 C18          0.4790     1.4460    -3.3220 ca         1 3Z3      -0.011000
     26 C19         -0.7280     1.2100    -3.9480 ca         1 3Z3      -0.175000
     27 C20         -1.8120     0.7350    -3.2100 ca         1 3Z3       0.010700
     28 C33         -3.1260     0.4720    -3.8840 c3         1 3Z3      -0.052800
     29 C21         -1.6620     0.5170    -1.8420 cp         1 3Z3      -0.125000
     30 C23         -2.8090     0.0280    -1.0400 cp         1 3Z3      -0.111000
     31 C29         -3.0710    -1.3560    -0.8880 ca         1 3Z3      -0.044000
     32 C28         -4.1240    -1.8340    -0.1560 ca         1 3Z3      -0.142000
     33 C27         -5.0020    -0.9310     0.4880 ca         1 3Z3       0.112000
     34 N5          -6.0370    -1.3860     1.2100 nb         1 3Z3      -0.273000
     35 C31         -6.8170    -0.4890     1.7880 ca         1 3Z3       0.396900
     36 N6          -7.8490    -0.9260     2.5200 nu         1 3Z3      -0.922100
     37 C32         -8.7850    -0.0720     3.2080 c3         1 3Z3       0.234100
     38 N4          -6.6680     0.8640     1.7120 nb         1 3Z3      -0.233000
     39 C30         -5.6680     1.3100     1.0140 ca         1 3Z3       0.192900
     40 C26         -4.7590     0.4570     0.3520 ca         1 3Z3      -0.257000
     41 C25         -3.6630     0.8900    -0.4100 ca         1 3Z3       0.243000
     42 F1          -3.4660     2.2080    -0.5190 f          1 3Z3      -0.164000
     43 H1           6.2110     1.3570     0.4490 ha         1 3Z3       0.122500
     44 H2           7.1500     3.4880     1.2550 ha         1 3Z3       0.120000
     45 H3           5.6500     5.2500     2.1330 ha         1 3Z3       0.117000
     46 H4           3.2080     4.8700     2.2000 ha         1 3Z3       0.120000
     47 H5           2.2640     2.7410     1.3940 ha         1 3Z3       0.122500
     48 H6           3.8550    -1.1330     2.8630 h1         1 3Z3       0.062033
     49 H7           5.4280    -1.4960     2.1190 h1         1 3Z3       0.062033
     50 H8           5.0250     0.1610     2.5620 h1         1 3Z3       0.062033
     51 H9           5.7230    -2.3470    -0.3200 ha         1 3Z3       0.127000
     52 H10          6.4880    -4.6890    -0.3640 ha         1 3Z3       0.118000
     53 H11          4.9140    -6.5220     0.1720 ha         1 3Z3       0.117000
     54 H12          2.5760    -5.9960     0.7870 ha         1 3Z3       0.118000
     55 H13          1.8240    -3.6460     0.9000 ha         1 3Z3       0.127000
     56 H14          0.5470     0.5460     0.5900 hn         1 3Z3       0.460000
     57 H15         -1.0390     0.0170     0.6030 hn         1 3Z3       0.460000
     58 H16          1.3190     1.8050    -3.9040 ha         1 3Z3       0.122000
     59 H17         -0.8340     1.3870    -5.0110 ha         1 3Z3       0.115000
     60 H18         -3.4140    -0.5780    -3.8030 hc         1 3Z3       0.044700
     61 H19         -3.9330     1.0560    -3.4370 hc         1 3Z3       0.044700
     62 H20         -3.0800     0.7240    -4.9420 hc         1 3Z3       0.044700
     63 H21         -2.4050    -2.0530    -1.3800 ha         1 3Z3       0.129000
     64 H22         -4.3000    -2.8970    -0.0610 ha         1 3Z3       0.136000
     65 H23         -7.9770    -1.9230     2.5690 hn         1 3Z3       0.509000
     66 H24         -8.2870     0.5880     3.9180 h1         1 3Z3       0.041700
     67 H25         -9.3640     0.5450     2.5200 h1         1 3Z3       0.041700
     68 H26         -9.4740    -0.7060     3.7580 h1         1 3Z3       0.041700
     69 H27         -5.5540     2.3880     0.9580 h4         1 3Z3       0.033100
@<TRIPOS>BOND
     1     1     2 ar  
     2     1     6 ar  
     3     1    43 1   
     4     2     3 ar  
     5     2    44 1   
     6     3     4 ar  
     7     3    45 1   
     8     4     5 ar  
     9     4    46 1   
    10     5     6 ar  
    11     5    47 1   
    12     6     7 1   
    13     7     8 1   
    14     7    19 2   
    15     8     9 1   
    16     8    10 1   
    17     9    48 1   
    18     9    49 1   
    19     9    50 1   
    20    10    11 1   
    21    10    17 1   
    22    11    12 ar  
    23    11    16 ar  
    24    12    13 ar  
    25    12    51 1   
    26    13    14 ar  
    27    13    52 1   
    28    14    15 ar  
    29    14    53 1   
    30    15    16 ar  
    31    15    54 1   
    32    16    55 1   
    33    17    18 2   
    34    17    19 1   
    35    19    20 1   
    36    20    21 2   
    37    20    22 1   
    38    22    23 ar  
    39    22    25 ar  
    40    23    24 1   
    41    23    29 ar  
    42    24    56 1   
    43    24    57 1   
    44    25    26 ar  
    45    25    58 1   
    46    26    27 ar  
    47    26    59 1   
    48    27    28 1   
    49    27    29 ar  
    50    28    60 1   
    51    28    61 1   
    52    28    62 1   
    53    29    30 1   
    54    30    31 ar  
    55    30    41 ar  
    56    31    32 ar  
    57    31    63 1   
    58    32    33 ar  
    59    32    64 1   
    60    33    34 ar  
    61    33    40 ar  
    62    34    35 ar  
    63    35    36 1   
    64    35    38 ar  
    65    36    37 1   
    66    36    65 1   
    67    37    66 1   
    68    37    67 1   
    69    37    68 1   
    70    38    39 ar  
    71    39    40 ar  
    72    39    69 1   
    73    40    41 ar  
    74    41    42 1   
@<TRIPOS>SUBSTRUCTURE
     1 3Z3         1 TEMP              0 ****  ****    0 ROOT
