@<TRIPOS>MOLECULE
3Z3
   69    74     1     0     0
SMALL
No Charge or Current Charge


@<TRIPOS>ATOM
      1 C11          5.7360     2.3850     0.5980 ca         1 3Z3      -0.070500
      2 C12          6.2420     3.5940     1.1060 ca         1 3Z3      -0.112000
      3 C13          5.4090     4.4510     1.8440 ca         1 3Z3      -0.087000
      4 C14          4.0710     4.0950     2.0800 ca         1 3Z3      -0.112000
      5 C15          3.5640     2.8850     1.5720 ca         1 3Z3      -0.070500
      6 C5           4.3900     2.0290     0.8130 ca         1 3Z3      -0.079800
      7 C2           3.8920     0.7470     0.3150 cc         1 3Z3       0.262800
      8 N1           4.4240    -0.5050     0.6260 na         1 3Z3      -0.390400
      9 C24          5.1830    -0.8760     1.8430 c3         1 3Z3       0.202100
     10 N2           3.5580    -1.5100     0.0430 n          1 3Z3      -0.185400
     11 C4           3.8470    -2.9210     0.0270 ca         1 3Z3       0.044600
     12 C6           5.1720    -3.3800    -0.1290 ca         1 3Z3      -0.105000
     13 C7           5.4510    -4.7580    -0.1440 ca         1 3Z3      -0.101000
     14 C8           4.4080    -5.6890    -0.0060 ca         1 3Z3      -0.108000
     15 C9           3.0850    -5.2400     0.1440 ca         1 3Z3      -0.101000
     16 C10          2.8060    -3.8620     0.1580 ca         1 3Z3      -0.105000
     17 C3           2.5310    -0.8640    -0.6490 c          1 3Z3       0.574200
     18 O1           1.6650    -1.4070    -1.3190 o          1 3Z3      -0.519000
     19 C1           2.7710     0.5530    -0.4600 cd         1 3Z3      -0.412400
     20 C16          1.9460     1.6160    -1.0760 c          1 3Z3       0.640900
     21 O2           2.2940     2.7890    -1.0940 o          1 3Z3      -0.536100
     22 C17          0.6530     1.2460    -1.7170 ca         1 3Z3      -0.228600
     23 C22         -0.4470     0.8350    -0.9480 ca         1 3Z3       0.382000
     24 N3          -0.3570     0.7830     0.4220 nv         1 3Z3      -1.081000
     25 C18          0.5340     1.3440    -3.1140 ca         1 3Z3      -0.011000
     26 C19         -0.6720     1.0090    -3.7420 ca         1 3Z3      -0.175000
     27 C20         -1.7780     0.5790    -2.9880 ca         1 3Z3       0.010700
     28 C33         -3.0650     0.2090    -3.7170 c3         1 3Z3      -0.052800
     29 C21         -1.6770     0.4930    -1.5730 cp         1 3Z3      -0.125000
     30 C23         -2.8520     0.0460    -0.7610 cp         1 3Z3      -0.111000
     31 C29         -2.8960    -1.2660    -0.2370 ca         1 3Z3      -0.044000
     32 C28         -3.9940    -1.7010     0.5240 ca         1 3Z3      -0.142000
     33 C27         -5.0750    -0.8400     0.7820 ca         1 3Z3       0.112000
     34 N5          -6.1310    -1.2550     1.5120 nb         1 3Z3      -0.273000
     35 C31         -7.1240    -0.3730     1.7150 ca         1 3Z3       0.396900
     36 N6          -8.1870    -0.8460     2.4700 nu         1 3Z3      -0.922100
     37 C32         -9.4090    -0.1150     2.8540 c3         1 3Z3       0.234100
     38 N4          -7.1830     0.8930     1.2670 nb         1 3Z3      -0.233000
     39 C30         -6.1340     1.3170     0.5380 ca         1 3Z3       0.192900
     40 C26         -5.0400     0.4730     0.2650 ca         1 3Z3      -0.257000
     41 C25         -3.9410     0.9120    -0.4970 ca         1 3Z3       0.243000
     42 F1          -3.9230     2.1770    -0.9790 f          1 3Z3      -0.164000
     43 H1           6.3890     1.7230     0.0330 ha         1 3Z3       0.122500
     44 H2           7.2810     3.8650     0.9300 ha         1 3Z3       0.120000
     45 H3           5.8010     5.3870     2.2380 ha         1 3Z3       0.117000
     46 H4           3.4260     4.7530     2.6590 ha         1 3Z3       0.120000
     47 H5           2.5300     2.6120     1.7700 ha         1 3Z3       0.122500
     48 H6           4.7110    -1.7300     2.3450 h1         1 3Z3       0.062033
     49 H7           6.2130    -1.1390     1.5730 h1         1 3Z3       0.062033
     50 H8           5.2070    -0.0300     2.5410 h1         1 3Z3       0.062033
     51 H9           5.9850    -2.6710    -0.2560 ha         1 3Z3       0.127000
     52 H10          6.4760    -5.1040    -0.2670 ha         1 3Z3       0.118000
     53 H11          4.6240    -6.7550    -0.0180 ha         1 3Z3       0.117000
     54 H12          2.2760    -5.9600     0.2500 ha         1 3Z3       0.118000
     55 H13          1.7800    -3.5280     0.2840 ha         1 3Z3       0.127000
     56 H14          0.5550     0.7560     0.8660 hn         1 3Z3       0.460000
     57 H15         -1.1300     0.3670     0.9340 hn         1 3Z3       0.460000
     58 H16          1.3810     1.6750    -3.7130 ha         1 3Z3       0.122000
     59 H17         -0.7440     1.0840    -4.8250 ha         1 3Z3       0.115000
     60 H18         -3.4540    -0.7560    -3.3720 hc         1 3Z3       0.044700
     61 H19         -3.8420     0.9650    -3.5490 hc         1 3Z3       0.044700
     62 H20         -2.9120     0.1290    -4.8000 hc         1 3Z3       0.044700
     63 H21         -2.0710    -1.9490    -0.4280 ha         1 3Z3       0.129000
     64 H22         -4.0080    -2.7150     0.9160 ha         1 3Z3       0.136000
     65 H23         -8.0950    -1.8140     2.7880 hn         1 3Z3       0.509000
     66 H24         -9.1560     0.7740     3.4490 h1         1 3Z3       0.041700
     67 H25         -9.9610     0.2090     1.9620 h1         1 3Z3       0.041700
     68 H26        -10.0690    -0.7560     3.4550 h1         1 3Z3       0.041700
     69 H27         -6.1800     2.3420     0.1730 h4         1 3Z3       0.033100
@<TRIPOS>BOND
     1     1     2 ar  
     2     1     6 ar  
     3     1    43 1   
     4     2     3 ar  
     5     2    44 1   
     6     3     4 ar  
     7     3    45 1   
     8     4     5 ar  
     9     4    46 1   
    10     5     6 ar  
    11     5    47 1   
    12     6     7 1   
    13     7     8 1   
    14     7    19 2   
    15     8     9 1   
    16     8    10 1   
    17     9    48 1   
    18     9    49 1   
    19     9    50 1   
    20    10    11 1   
    21    10    17 1   
    22    11    12 ar  
    23    11    16 ar  
    24    12    13 ar  
    25    12    51 1   
    26    13    14 ar  
    27    13    52 1   
    28    14    15 ar  
    29    14    53 1   
    30    15    16 ar  
    31    15    54 1   
    32    16    55 1   
    33    17    18 2   
    34    17    19 1   
    35    19    20 1   
    36    20    21 2   
    37    20    22 1   
    38    22    23 ar  
    39    22    25 ar  
    40    23    24 1   
    41    23    29 ar  
    42    24    56 1   
    43    24    57 1   
    44    25    26 ar  
    45    25    58 1   
    46    26    27 ar  
    47    26    59 1   
    48    27    28 1   
    49    27    29 ar  
    50    28    60 1   
    51    28    61 1   
    52    28    62 1   
    53    29    30 1   
    54    30    31 ar  
    55    30    41 ar  
    56    31    32 ar  
    57    31    63 1   
    58    32    33 ar  
    59    32    64 1   
    60    33    34 ar  
    61    33    40 ar  
    62    34    35 ar  
    63    35    36 1   
    64    35    38 ar  
    65    36    37 1   
    66    36    65 1   
    67    37    66 1   
    68    37    67 1   
    69    37    68 1   
    70    38    39 ar  
    71    39    40 ar  
    72    39    69 1   
    73    40    41 ar  
    74    41    42 1   
@<TRIPOS>SUBSTRUCTURE
     1 3Z3         1 TEMP              0 ****  ****    0 ROOT
