@<TRIPOS>MOLECULE
3Z4
   67    72     1     0     0
SMALL
No Charge or Current Charge


@<TRIPOS>ATOM
      1 C32         -7.9460    -1.0300     3.3280 c3         1 3Z4       0.224100
      2 N4          -7.3210    -1.4020     2.0470 nu         1 3Z4      -0.892400
      3 C24         -6.2490    -0.7940     1.4520 cc         1 3Z4       0.658100
      4 N3          -5.6790     0.2460     2.0590 nd         1 3Z4      -0.642100
      5 S1          -5.5930    -1.3480    -0.1070 ss         1 3Z4      -0.051200
      6 C23         -4.4330    -0.0450     0.0800 ca         1 3Z4      -0.194000
      7 C28         -3.4090     0.2780    -0.8230 ca         1 3Z4      -0.040000
      8 C22         -4.6300     0.6640     1.2480 ca         1 3Z4       0.147400
      9 C25         -3.7890     1.7440     1.5570 ca         1 3Z4      -0.091000
     10 C26         -2.7520     2.0910     0.6680 ca         1 3Z4      -0.099000
     11 C27         -2.5460     1.3640    -0.5350 cp         1 3Z4      -0.049000
     12 C16         -1.4470     1.7380    -1.4790 cp         1 3Z4      -0.141000
     13 C17         -0.0840     1.5050    -1.1450 ca         1 3Z4       0.390000
     14 N5           0.1950     0.9780     0.0890 nv         1 3Z4      -1.092000
     15 C21         -1.7600     2.3390    -2.7270 ca         1 3Z4       0.009700
     16 C29         -3.2000     2.6290    -3.1380 c3         1 3Z4      -0.053800
     17 C20         -0.7240     2.7020    -3.6030 ca         1 3Z4      -0.181000
     18 C19          0.6130     2.4650    -3.2650 ca         1 3Z4      -0.010000
     19 C18          0.9480     1.8470    -2.0450 ca         1 3Z4      -0.239600
     20 C30          2.4080     1.6130    -1.7680 c          1 3Z4       0.634900
     21 O2           3.2280     2.4890    -2.0100 o          1 3Z4      -0.541100
     22 C13          2.7910     0.3860    -1.0740 cc         1 3Z4      -0.387400
     23 C15          2.2830    -0.8820    -1.5110 c          1 3Z4       0.585200
     24 O1           1.5950    -1.1150    -2.4940 o          1 3Z4      -0.504000
     25 N2           2.8240    -1.8070    -0.6220 n          1 3Z4      -0.187400
     26 C7           2.8620    -3.2380    -0.7860 ca         1 3Z4       0.048600
     27 C8           1.7410    -3.9350    -1.2830 ca         1 3Z4      -0.107500
     28 C9           1.7790    -5.3320    -1.4370 ca         1 3Z4      -0.101500
     29 C10          2.9400    -6.0460    -1.0970 ca         1 3Z4      -0.113000
     30 C11          4.0620    -5.3620    -0.6020 ca         1 3Z4      -0.101500
     31 C12          4.0230    -3.9650    -0.4470 ca         1 3Z4      -0.107500
     32 N1           3.5810    -1.0870     0.3860 na         1 3Z4      -0.387400
     33 C31          3.5330    -1.6550     1.7570 c3         1 3Z4       0.197100
     34 C14          3.5780     0.2820     0.0510 cd         1 3Z4       0.243800
     35 C1           4.1000     1.3460     0.9460 ca         1 3Z4      -0.071800
     36 C2           3.5060     2.6280     1.0330 ca         1 3Z4      -0.073500
     37 C3           4.0250     3.6040     1.9020 ca         1 3Z4      -0.111000
     38 C4           5.1420     3.3190     2.7000 ca         1 3Z4      -0.089000
     39 C5           5.7370     2.0500     2.6340 ca         1 3Z4      -0.111000
     40 C6           5.2180     1.0730     1.7680 ca         1 3Z4      -0.073500
     41 H1          -7.2190    -1.1050     4.1480 h1         1 3Z4       0.043700
     42 H2          -8.3220     0.0020     3.2880 h1         1 3Z4       0.043700
     43 H3          -8.7900    -1.6960     3.5520 h1         1 3Z4       0.043700
     44 H4          -7.7060    -2.1880     1.5260 hn         1 3Z4       0.506000
     45 H5          -3.2760    -0.3000    -1.7350 ha         1 3Z4       0.137000
     46 H6          -3.9380     2.3080     2.4740 ha         1 3Z4       0.128000
     47 H7          -2.1020     2.9300     0.9050 ha         1 3Z4       0.117000
     48 H8          -0.5820     0.6420     0.6510 hn         1 3Z4       0.467000
     49 H9           1.1170     0.6040     0.2860 hn         1 3Z4       0.467000
     50 H10         -3.7570     3.1100    -2.3240 hc         1 3Z4       0.045700
     51 H11         -3.2500     3.2990    -4.0040 hc         1 3Z4       0.045700
     52 H12         -3.7250     1.7050    -3.4060 hc         1 3Z4       0.045700
     53 H13         -0.9550     3.1710    -4.5570 ha         1 3Z4       0.116000
     54 H14          1.3960     2.7510    -3.9670 ha         1 3Z4       0.123000
     55 H15          0.8300    -3.3990    -1.5380 ha         1 3Z4       0.128500
     56 H16          0.9080    -5.8610    -1.8180 ha         1 3Z4       0.116500
     57 H17          2.9700    -7.1270    -1.2170 ha         1 3Z4       0.115000
     58 H18          4.9630    -5.9120    -0.3410 ha         1 3Z4       0.116500
     59 H19          4.9030    -3.4460    -0.0770 ha         1 3Z4       0.128500
     60 H20          4.5090    -2.0860     2.0130 h1         1 3Z4       0.060367
     61 H21          3.2890    -0.8690     2.4830 h1         1 3Z4       0.060367
     62 H22          2.7680    -2.4380     1.8250 h1         1 3Z4       0.060367
     63 H23          2.6150     2.8730     0.4660 ha         1 3Z4       0.119000
     64 H24          3.5520     4.5820     1.9620 ha         1 3Z4       0.118500
     65 H25          5.5420     4.0760     3.3720 ha         1 3Z4       0.117000
     66 H26          6.6040     1.8240     3.2510 ha         1 3Z4       0.118500
     67 H27          5.7090     0.1040     1.7180 ha         1 3Z4       0.119000
@<TRIPOS>BOND
     1     1     2 1   
     2     1    41 1   
     3     1    42 1   
     4     1    43 1   
     5     2     3 1   
     6     2    44 1   
     7     3     4 2   
     8     3     5 1   
     9     4     8 1   
    10     5     6 1   
    11     6     7 ar  
    12     6     8 ar  
    13     7    11 ar  
    14     7    45 1   
    15     8     9 ar  
    16     9    10 ar  
    17     9    46 1   
    18    10    11 ar  
    19    10    47 1   
    20    11    12 1   
    21    12    13 ar  
    22    12    15 ar  
    23    13    14 1   
    24    13    19 ar  
    25    14    48 1   
    26    14    49 1   
    27    15    16 1   
    28    15    17 ar  
    29    16    50 1   
    30    16    51 1   
    31    16    52 1   
    32    17    18 ar  
    33    17    53 1   
    34    18    19 ar  
    35    18    54 1   
    36    19    20 1   
    37    20    21 2   
    38    20    22 1   
    39    22    23 1   
    40    22    34 2   
    41    23    24 2   
    42    23    25 1   
    43    25    26 1   
    44    25    32 1   
    45    26    27 ar  
    46    26    31 ar  
    47    27    28 ar  
    48    27    55 1   
    49    28    29 ar  
    50    28    56 1   
    51    29    30 ar  
    52    29    57 1   
    53    30    31 ar  
    54    30    58 1   
    55    31    59 1   
    56    32    33 1   
    57    32    34 1   
    58    33    60 1   
    59    33    61 1   
    60    33    62 1   
    61    34    35 1   
    62    35    36 ar  
    63    35    40 ar  
    64    36    37 ar  
    65    36    63 1   
    66    37    38 ar  
    67    37    64 1   
    68    38    39 ar  
    69    38    65 1   
    70    39    40 ar  
    71    39    66 1   
    72    40    67 1   
@<TRIPOS>SUBSTRUCTURE
     1 3Z4         1 TEMP              0 ****  ****    0 ROOT
