@<TRIPOS>MOLECULE
3Z4
   67    72     1     0     0
SMALL
abcg2


@<TRIPOS>ATOM
      1 C32         -8.4370    -1.1620     2.6150 c3         1 3Z4       0.224100
      2 N4          -7.5250    -1.6950     1.6310 nu         1 3Z4      -0.892400
      3 C24         -6.4960    -0.9840     1.1690 cc         1 3Z4       0.658100
      4 N3          -6.2290     0.2340     1.5220 nd         1 3Z4      -0.642100
      5 S1          -5.3960    -1.7000    -0.0150 ss         1 3Z4      -0.051200
      6 C23         -4.5100    -0.2020    -0.0260 ca         1 3Z4      -0.194000
      7 C28         -3.3860     0.1290    -0.7610 ca         1 3Z4      -0.040000
      8 C22         -5.1190     0.7000     0.8650 ca         1 3Z4       0.147400
      9 C25         -4.5620     1.9690     1.0070 ca         1 3Z4      -0.091000
     10 C26         -3.4390     2.3060     0.2690 ca         1 3Z4      -0.099000
     11 C27         -2.8450     1.4040    -0.6210 cp         1 3Z4      -0.049000
     12 C16         -1.6490     1.7940    -1.4110 cp         1 3Z4      -0.141000
     13 C17         -0.3660     1.5530    -0.8740 ca         1 3Z4       0.390000
     14 N5          -0.2640     0.9790     0.3610 nv         1 3Z4      -1.092000
     15 C21         -1.8030     2.3880    -2.6610 ca         1 3Z4       0.009700
     16 C29         -3.1730     2.6110    -3.2340 c3         1 3Z4      -0.053800
     17 C20         -0.6730     2.7720    -3.3850 ca         1 3Z4      -0.181000
     18 C19          0.5840     2.5460    -2.8640 ca         1 3Z4      -0.010000
     19 C18          0.7660     1.9160    -1.6350 ca         1 3Z4      -0.239600
     20 C30          2.1630     1.6970    -1.1930 c          1 3Z4       0.634900
     21 O2           3.0240     2.5340    -1.4150 o          1 3Z4      -0.541100
     22 C13          2.5010     0.4360    -0.5340 cc         1 3Z4      -0.387400
     23 C15          1.9190    -0.8570    -0.8290 c          1 3Z4       0.585200
     24 O1           1.0440    -1.1980    -1.6030 o          1 3Z4      -0.504000
     25 N2           2.6630    -1.7510    -0.0630 n          1 3Z4      -0.187400
     26 C7           2.7800    -3.1280    -0.3500 ca         1 3Z4       0.048600
     27 C8           1.6590    -3.9380    -0.2260 ca         1 3Z4      -0.107500
     28 C9           1.7540    -5.2870    -0.5330 ca         1 3Z4      -0.101500
     29 C10          2.9650    -5.8310    -0.9380 ca         1 3Z4      -0.113000
     30 C11          4.0850    -5.0170    -1.0500 ca         1 3Z4      -0.101500
     31 C12          3.9940    -3.6610    -0.7700 ca         1 3Z4      -0.107500
     32 N1           3.6880    -1.0920     0.5790 na         1 3Z4      -0.387400
     33 C31          4.1370    -1.6430     1.8480 c3         1 3Z4       0.197100
     34 C14          3.5590     0.2230     0.3210 cd         1 3Z4       0.243800
     35 C1           4.4410     1.2040     0.9580 ca         1 3Z4      -0.071800
     36 C2           3.9000     2.2670     1.6760 ca         1 3Z4      -0.073500
     37 C3           4.7360     3.1940     2.2770 ca         1 3Z4      -0.111000
     38 C4           6.1150     3.0710     2.1590 ca         1 3Z4      -0.089000
     39 C5           6.6570     2.0120     1.4430 ca         1 3Z4      -0.111000
     40 C6           5.8240     1.0780     0.8460 ca         1 3Z4      -0.073500
     41 H1          -7.9370    -0.9630     3.5640 h1         1 3Z4       0.043700
     42 H2          -8.8950    -0.2350     2.2680 h1         1 3Z4       0.043700
     43 H3          -9.2210    -1.8940     2.7830 h1         1 3Z4       0.043700
     44 H4          -7.6440    -2.6470     1.3310 hn         1 3Z4       0.506000
     45 H5          -2.9330    -0.5820    -1.4410 ha         1 3Z4       0.137000
     46 H6          -5.0100     2.6810     1.6880 ha         1 3Z4       0.128000
     47 H7          -3.0130     3.2960     0.3780 ha         1 3Z4       0.117000
     48 H8          -1.0870     0.9790     0.9390 hn         1 3Z4       0.467000
     49 H9           0.5890     1.0850     0.8800 hn         1 3Z4       0.467000
     50 H10         -3.8220     3.1450    -2.5390 hc         1 3Z4       0.045700
     51 H11         -3.1210     3.1850    -4.1590 hc         1 3Z4       0.045700
     52 H12         -3.6650     1.6630    -3.4580 hc         1 3Z4       0.045700
     53 H13         -0.7840     3.2420    -4.3540 ha         1 3Z4       0.116000
     54 H14          1.4570     2.8380    -3.4350 ha         1 3Z4       0.123000
     55 H15          0.7220    -3.5200     0.1170 ha         1 3Z4       0.128500
     56 H16          0.8800    -5.9180    -0.4410 ha         1 3Z4       0.116500
     57 H17          3.0380    -6.8870    -1.1640 ha         1 3Z4       0.115000
     58 H18          5.0310    -5.4330    -1.3680 ha         1 3Z4       0.116500
     59 H19          4.8620    -3.0220    -0.8800 ha         1 3Z4       0.128500
     60 H20          4.5320    -2.6450     1.7030 h1         1 3Z4       0.060367
     61 H21          4.9340    -1.0180     2.2370 h1         1 3Z4       0.060367
     62 H22          3.3170    -1.6740     2.5660 h1         1 3Z4       0.060367
     63 H23          2.8260     2.3620     1.7780 ha         1 3Z4       0.119000
     64 H24          4.3090     4.0150     2.8380 ha         1 3Z4       0.118500
     65 H25          6.7650     3.7990     2.6270 ha         1 3Z4       0.117000
     66 H26          7.7300     1.9130     1.3450 ha         1 3Z4       0.118500
     67 H27          6.2500     0.2580     0.2800 ha         1 3Z4       0.119000
@<TRIPOS>BOND
     1     1     2 1   
     2     1    41 1   
     3     1    42 1   
     4     1    43 1   
     5     2     3 1   
     6     2    44 1   
     7     3     4 2   
     8     3     5 1   
     9     4     8 1   
    10     5     6 1   
    11     6     7 ar  
    12     6     8 ar  
    13     7    11 ar  
    14     7    45 1   
    15     8     9 ar  
    16     9    10 ar  
    17     9    46 1   
    18    10    11 ar  
    19    10    47 1   
    20    11    12 1   
    21    12    13 ar  
    22    12    15 ar  
    23    13    14 1   
    24    13    19 ar  
    25    14    48 1   
    26    14    49 1   
    27    15    16 1   
    28    15    17 ar  
    29    16    50 1   
    30    16    51 1   
    31    16    52 1   
    32    17    18 ar  
    33    17    53 1   
    34    18    19 ar  
    35    18    54 1   
    36    19    20 1   
    37    20    21 2   
    38    20    22 1   
    39    22    23 1   
    40    22    34 2   
    41    23    24 2   
    42    23    25 1   
    43    25    26 1   
    44    25    32 1   
    45    26    27 ar  
    46    26    31 ar  
    47    27    28 ar  
    48    27    55 1   
    49    28    29 ar  
    50    28    56 1   
    51    29    30 ar  
    52    29    57 1   
    53    30    31 ar  
    54    30    58 1   
    55    31    59 1   
    56    32    33 1   
    57    32    34 1   
    58    33    60 1   
    59    33    61 1   
    60    33    62 1   
    61    34    35 1   
    62    35    36 ar  
    63    35    40 ar  
    64    36    37 ar  
    65    36    63 1   
    66    37    38 ar  
    67    37    64 1   
    68    38    39 ar  
    69    38    65 1   
    70    39    40 ar  
    71    39    66 1   
    72    40    67 1   
@<TRIPOS>SUBSTRUCTURE
     1 3Z4         1 TEMP              0 ****  ****    0 ROOT
