@<TRIPOS>MOLECULE
3Z5
   68    73     1     0     0
SMALL
No Charge or Current Charge


@<TRIPOS>ATOM
      1 C27          3.4390    -0.1230     0.7220 ca         1 3Z5      -0.089000
      2 C25          4.4210    -0.6320    -0.1490 ca         1 3Z5      -0.091000
      3 C28          5.1300    -1.7980     0.1910 ca         1 3Z5      -0.058000
      4 C31          6.0990    -2.2710    -0.7040 ca         1 3Z5      -0.170000
      5 C32          6.3260    -1.5700    -1.9010 ca         1 3Z5       0.369300
      6 C34          7.3670    -2.0390    -2.8990 c3         1 3Z5      -0.148400
      7 N4           5.6470    -0.4480    -2.2300 nb         1 3Z5      -0.671000
      8 C26          4.7080     0.0210    -1.3750 ca         1 3Z5       0.274000
      9 C29          3.9880     1.1850    -1.6970 ca         1 3Z5      -0.094000
     10 C33          3.0070     1.6930    -0.8270 ca         1 3Z5      -0.085000
     11 C30          2.7180     1.0470     0.3950 cp         1 3Z5      -0.026000
     12 C12          1.6780     1.5880     1.3240 cp         1 3Z5      -0.129000
     13 C13          0.2940     1.4930     1.0070 ca         1 3Z5       0.377000
     14 N3          -0.0560     0.9400    -0.1990 nv         1 3Z5      -1.080000
     15 C11          2.0680     2.2090     2.5400 ca         1 3Z5       0.001700
     16 C14          3.5360     2.3520     2.9290 c3         1 3Z5      -0.052800
     17 C10          1.0890     2.7270     3.4020 ca         1 3Z5      -0.173000
     18 C9          -0.2700     2.6260     3.0810 ca         1 3Z5      -0.019000
     19 C8          -0.6850     1.9920     1.8950 ca         1 3Z5      -0.225600
     20 C7          -2.1660     1.9120     1.6340 c          1 3Z5       0.643900
     21 O2          -2.8500     2.9100     1.7970 o          1 3Z5      -0.543100
     22 C1          -2.6910     0.6630     1.0630 cc         1 3Z5      -0.418400
     23 C3          -2.2030    -0.5940     1.5600 c          1 3Z5       0.577200
     24 O1          -1.5440    -0.7930     2.5710 o          1 3Z5      -0.525000
     25 N2          -2.5860    -1.5390     0.6130 n          1 3Z5      -0.185400
     26 C4          -2.0830    -2.8840     0.4940 ca         1 3Z5       0.039600
     27 C15         -1.7460    -3.4110    -0.7710 ca         1 3Z5      -0.100500
     28 C16         -1.2560    -4.7240    -0.8890 ca         1 3Z5      -0.103500
     29 C17         -1.0990    -5.5220     0.2550 ca         1 3Z5      -0.104000
     30 C18         -1.4310    -5.0060     1.5190 ca         1 3Z5      -0.103500
     31 C19         -1.9200    -3.6930     1.6370 ca         1 3Z5      -0.100500
     32 N1          -3.3270    -0.8600    -0.4270 na         1 3Z5      -0.394400
     33 C5          -4.4350    -1.6250    -1.0510 c3         1 3Z5       0.210100
     34 C2          -3.3190     0.5180    -0.1580 cd         1 3Z5       0.269800
     35 C6          -4.0450     1.4960    -1.0030 ca         1 3Z5      -0.085800
     36 C20         -4.7770     2.5780    -0.4670 ca         1 3Z5      -0.066000
     37 C21         -5.4640     3.4710    -1.3090 ca         1 3Z5      -0.114000
     38 C22         -5.4410     3.2890    -2.7000 ca         1 3Z5      -0.087000
     39 C23         -4.7440     2.2020    -3.2460 ca         1 3Z5      -0.114000
     40 C24         -4.0600     1.3080    -2.4040 ca         1 3Z5      -0.066000
     41 H1           3.2260    -0.6330     1.6580 ha         1 3Z5       0.127000
     42 H2           4.9360    -2.3230     1.1240 ha         1 3Z5       0.119000
     43 H3           6.6690    -3.1670    -0.4760 ha         1 3Z5       0.120000
     44 H4           8.2940    -1.4640    -2.7920 hc         1 3Z5       0.051367
     45 H5           7.6110    -3.0980    -2.7540 hc         1 3Z5       0.051367
     46 H6           7.0140    -1.9210    -3.9300 hc         1 3Z5       0.051367
     47 H7           4.1940     1.7000    -2.6310 ha         1 3Z5       0.130000
     48 H8           2.4660     2.5980    -1.0970 ha         1 3Z5       0.125000
     49 H9           0.6720     0.4790    -0.7360 hn         1 3Z5       0.459500
     50 H10         -1.0070     0.6180    -0.3430 hn         1 3Z5       0.459500
     51 H11          4.1320     2.7410     2.0950 hc         1 3Z5       0.044367
     52 H12          3.6700     3.0410     3.7720 hc         1 3Z5       0.044367
     53 H13          3.9600     1.3850     3.2240 hc         1 3Z5       0.044367
     54 H14          1.3800     3.2120     4.3310 ha         1 3Z5       0.114000
     55 H15         -1.0090     3.0310     3.7720 ha         1 3Z5       0.117000
     56 H16         -1.8480    -2.8000    -1.6640 ha         1 3Z5       0.127000
     57 H17         -0.9960    -5.1200    -1.8690 ha         1 3Z5       0.119500
     58 H18         -0.7200    -6.5380     0.1640 ha         1 3Z5       0.118000
     59 H19         -1.3120    -5.6240     2.4060 ha         1 3Z5       0.119500
     60 H20         -2.1850    -3.3130     2.6210 ha         1 3Z5       0.127000
     61 H21         -4.6600    -2.5240    -0.4640 h1         1 3Z5       0.063033
     62 H22         -5.3390    -1.0050    -1.0990 h1         1 3Z5       0.063033
     63 H23         -4.1540    -1.9230    -2.0680 h1         1 3Z5       0.063033
     64 H24         -4.8790     2.7030     0.6050 ha         1 3Z5       0.124000
     65 H25         -6.0280     4.2950    -0.8780 ha         1 3Z5       0.119500
     66 H26         -5.9740     3.9800    -3.3500 ha         1 3Z5       0.117000
     67 H27         -4.7310     2.0510    -4.3230 ha         1 3Z5       0.119500
     68 H28         -3.5150     0.4790    -2.8500 ha         1 3Z5       0.124000
@<TRIPOS>BOND
     1     1     2 ar  
     2     1    11 ar  
     3     1    41 1   
     4     2     3 ar  
     5     2     8 ar  
     6     3     4 ar  
     7     3    42 1   
     8     4     5 ar  
     9     4    43 1   
    10     5     6 1   
    11     5     7 ar  
    12     6    44 1   
    13     6    45 1   
    14     6    46 1   
    15     7     8 ar  
    16     8     9 ar  
    17     9    10 ar  
    18     9    47 1   
    19    10    11 ar  
    20    10    48 1   
    21    11    12 1   
    22    12    13 ar  
    23    12    15 ar  
    24    13    14 1   
    25    13    19 ar  
    26    14    49 1   
    27    14    50 1   
    28    15    16 1   
    29    15    17 ar  
    30    16    51 1   
    31    16    52 1   
    32    16    53 1   
    33    17    18 ar  
    34    17    54 1   
    35    18    19 ar  
    36    18    55 1   
    37    19    20 1   
    38    20    21 2   
    39    20    22 1   
    40    22    23 1   
    41    22    34 2   
    42    23    24 2   
    43    23    25 1   
    44    25    26 1   
    45    25    32 1   
    46    26    27 ar  
    47    26    31 ar  
    48    27    28 ar  
    49    27    56 1   
    50    28    29 ar  
    51    28    57 1   
    52    29    30 ar  
    53    29    58 1   
    54    30    31 ar  
    55    30    59 1   
    56    31    60 1   
    57    32    33 1   
    58    32    34 1   
    59    33    61 1   
    60    33    62 1   
    61    33    63 1   
    62    34    35 1   
    63    35    36 ar  
    64    35    40 ar  
    65    36    37 ar  
    66    36    64 1   
    67    37    38 ar  
    68    37    65 1   
    69    38    39 ar  
    70    38    66 1   
    71    39    40 ar  
    72    39    67 1   
    73    40    68 1   
@<TRIPOS>SUBSTRUCTURE
     1 3Z5         1 TEMP              0 ****  ****    0 ROOT
