@<TRIPOS>MOLECULE
3Z5
   68    73     1     0     0
SMALL
bcc


@<TRIPOS>ATOM
      1 C27          3.5310    -0.1230     0.6120 ca         1 3Z5      -0.107000
      2 C25          4.6170    -0.6770    -0.0980 ca         1 3Z5      -0.156300
      3 C28          5.0700    -2.0020     0.0970 ca         1 3Z5      -0.076000
      4 C31          6.1260    -2.4600    -0.6320 ca         1 3Z5      -0.253300
      5 C32          6.7520    -1.5990    -1.5730 ca         1 3Z5       0.434600
      6 C34          7.9190    -2.1040    -2.3630 c3         1 3Z5      -0.148400
      7 N4           6.3510    -0.3700    -1.7720 nb         1 3Z5      -0.671000
      8 C26          5.3020     0.1050    -1.0560 ca         1 3Z5       0.404600
      9 C29          4.8740     1.4330    -1.2750 ca         1 3Z5      -0.177300
     10 C33          3.8170     1.9460    -0.5720 ca         1 3Z5      -0.103000
     11 C30          3.1300     1.1710     0.3920 cp         1 3Z5      -0.026000
     12 C12          1.9850     1.7500     1.1400 cp         1 3Z5      -0.129000
     13 C13          0.6930     1.6250     0.6010 ca         1 3Z5       0.238600
     14 N3           0.5370     1.0720    -0.6470 nv         1 3Z5      -0.831200
     15 C11          2.1980     2.4080     2.3500 ca         1 3Z5       0.001700
     16 C14          3.5810     2.5190     2.9240 c3         1 3Z5      -0.052800
     17 C10          1.1140     2.9730     3.0210 ca         1 3Z5      -0.191000
     18 C9          -0.1590     2.8560     2.4950 ca         1 3Z5      -0.037000
     19 C8          -0.3940     2.1610     1.3140 ca         1 3Z5      -0.225600
     20 C7          -1.8050     2.0450     0.8560 c          1 3Z5       0.643900
     21 O2          -2.5070     3.0400     0.7790 o          1 3Z5      -0.543100
     22 C1          -2.3240     0.7150     0.5630 cc         1 3Z5      -0.418400
     23 C3          -1.7560    -0.5490     0.9870 c          1 3Z5       0.719700
     24 O1          -0.7550    -0.8310     1.6240 o          1 3Z5      -0.600500
     25 N2          -2.6260    -1.5050     0.4760 n          1 3Z5      -0.252400
     26 C4          -2.2990    -2.8670     0.2880 ca         1 3Z5       0.039600
     27 C15         -2.0030    -3.3490    -0.9820 ca         1 3Z5      -0.118500
     28 C16         -1.6720    -4.6850    -1.1450 ca         1 3Z5      -0.121500
     29 C17         -1.6100    -5.5280    -0.0420 ca         1 3Z5      -0.122000
     30 C18         -1.8890    -5.0340     1.2260 ca         1 3Z5      -0.121500
     31 C19         -2.2450    -3.7040     1.3940 ca         1 3Z5      -0.118500
     32 N1          -3.6100    -0.9010    -0.2650 na         1 3Z5      -0.394400
     33 C5          -4.8080    -1.6470    -0.5920 c3         1 3Z5       0.210100
     34 C2          -3.4670     0.4220    -0.1690 cd         1 3Z5       0.269800
     35 C6          -4.4310     1.3190    -0.8220 ca         1 3Z5      -0.085800
     36 C20         -5.2780     2.1230    -0.0660 ca         1 3Z5      -0.084000
     37 C21         -6.2060     2.9340    -0.6990 ca         1 3Z5      -0.132000
     38 C22         -6.2810     2.9600    -2.0870 ca         1 3Z5      -0.105000
     39 C23         -5.4320     2.1640    -2.8430 ca         1 3Z5      -0.132000
     40 C24         -4.5120     1.3380    -2.2120 ca         1 3Z5      -0.084000
     41 H1           3.0130    -0.7380     1.3400 ha         1 3Z5       0.145000
     42 H2           4.5740    -2.6390     0.8200 ha         1 3Z5       0.137000
     43 H3           6.4920    -3.4700    -0.5050 ha         1 3Z5       0.138000
     44 H4           8.7820    -2.2630    -1.7130 hc         1 3Z5       0.051367
     45 H5           7.6910    -3.0630    -2.8300 hc         1 3Z5       0.051367
     46 H6           8.2020    -1.3950    -3.1380 hc         1 3Z5       0.051367
     47 H7           5.3960     2.0340    -2.0090 ha         1 3Z5       0.148000
     48 H8           3.4970     2.9660    -0.7500 ha         1 3Z5       0.143000
     49 H9           1.2240     0.3920    -0.9290 hn         1 3Z5       0.404300
     50 H10         -0.3930     0.8170    -0.9340 hn         1 3Z5       0.404300
     51 H11          4.2710     2.9940     2.2240 hc         1 3Z5       0.044367
     52 H12          3.5760     3.1070     3.8410 hc         1 3Z5       0.044367
     53 H13          3.9960     1.5380     3.1580 hc         1 3Z5       0.044367
     54 H14          1.2700     3.4980     3.9540 ha         1 3Z5       0.132000
     55 H15         -0.9990     3.2840     3.0290 ha         1 3Z5       0.135000
     56 H16         -2.0260    -2.6840    -1.8370 ha         1 3Z5       0.145000
     57 H17         -1.4500    -5.0650    -2.1330 ha         1 3Z5       0.137500
     58 H18         -1.3440    -6.5690    -0.1710 ha         1 3Z5       0.136000
     59 H19         -1.8410    -5.6890     2.0860 ha         1 3Z5       0.137500
     60 H20         -2.4870    -3.3190     2.3750 ha         1 3Z5       0.145000
     61 H21         -5.2290    -2.0910     0.3090 h1         1 3Z5       0.063033
     62 H22         -5.5330    -0.9640    -1.0230 h1         1 3Z5       0.063033
     63 H23         -4.5960    -2.4270    -1.3190 h1         1 3Z5       0.063033
     64 H24         -5.2210     2.1040     1.0140 ha         1 3Z5       0.142000
     65 H25         -6.8700     3.5500    -0.1080 ha         1 3Z5       0.137500
     66 H26         -7.0030     3.5990    -2.5790 ha         1 3Z5       0.135000
     67 H27         -5.4860     2.1810    -3.9230 ha         1 3Z5       0.137500
     68 H28         -3.8520     0.7150    -2.8030 ha         1 3Z5       0.142000
@<TRIPOS>BOND
     1     1     2 ar  
     2     1    11 ar  
     3     1    41 1   
     4     2     3 ar  
     5     2     8 ar  
     6     3     4 ar  
     7     3    42 1   
     8     4     5 ar  
     9     4    43 1   
    10     5     6 1   
    11     5     7 ar  
    12     6    44 1   
    13     6    45 1   
    14     6    46 1   
    15     7     8 ar  
    16     8     9 ar  
    17     9    10 ar  
    18     9    47 1   
    19    10    11 ar  
    20    10    48 1   
    21    11    12 1   
    22    12    13 ar  
    23    12    15 ar  
    24    13    14 1   
    25    13    19 ar  
    26    14    49 1   
    27    14    50 1   
    28    15    16 1   
    29    15    17 ar  
    30    16    51 1   
    31    16    52 1   
    32    16    53 1   
    33    17    18 ar  
    34    17    54 1   
    35    18    19 ar  
    36    18    55 1   
    37    19    20 1   
    38    20    21 2   
    39    20    22 1   
    40    22    23 1   
    41    22    34 2   
    42    23    24 2   
    43    23    25 1   
    44    25    26 1   
    45    25    32 1   
    46    26    27 ar  
    47    26    31 ar  
    48    27    28 ar  
    49    27    56 1   
    50    28    29 ar  
    51    28    57 1   
    52    29    30 ar  
    53    29    58 1   
    54    30    31 ar  
    55    30    59 1   
    56    31    60 1   
    57    32    33 1   
    58    32    34 1   
    59    33    61 1   
    60    33    62 1   
    61    33    63 1   
    62    34    35 1   
    63    35    36 ar  
    64    35    40 ar  
    65    36    37 ar  
    66    36    64 1   
    67    37    38 ar  
    68    37    65 1   
    69    38    39 ar  
    70    38    66 1   
    71    39    40 ar  
    72    39    67 1   
    73    40    68 1   
@<TRIPOS>SUBSTRUCTURE
     1 3Z5         1 TEMP              0 ****  ****    0 ROOT
