@<TRIPOS>MOLECULE
3Z6
   56    60     1     0     0
SMALL
No Charge or Current Charge


@<TRIPOS>ATOM
      1 F1           8.5370     0.8780    -1.2190 f          1 3Z6      -0.111000
      2 C23          7.5920     0.9000    -0.2510 c3         1 3Z6       0.358300
      3 F2           8.1210     0.2870     0.8310 f          1 3Z6      -0.111000
      4 F3           7.4090     2.1990     0.0800 f          1 3Z6      -0.111000
      5 C9           6.2860     0.2260    -0.6890 ca         1 3Z6      -0.169300
      6 C8           5.0650     0.5660    -0.0630 ca         1 3Z6      -0.058000
      7 C10          6.2810    -0.7600    -1.7020 ca         1 3Z6      -0.101000
      8 C11          5.0790    -1.3760    -2.0830 ca         1 3Z6       0.169000
      9 F4           5.0860    -2.3170    -3.0530 f          1 3Z6      -0.171000
     10 C12          3.8710    -1.0260    -1.4630 ca         1 3Z6      -0.113000
     11 C7           3.8590    -0.0520    -0.4480 ca         1 3Z6      -0.048300
     12 C22          2.5460     0.3220     0.2330 c3         1 3Z6      -0.113100
     13 C21          2.2040    -0.6580     1.3690 c          1 3Z6       0.610100
     14 O1           3.0110    -0.8580     2.2720 o          1 3Z6      -0.574100
     15 N4           0.9940    -1.3880     1.3120 n          1 3Z6      -0.224400
     16 C15          0.9080    -2.7010     2.0030 c5         1 3Z6       0.095000
     17 C16         -0.5040    -3.2450     1.5370 c5         1 3Z6      -0.044100
     18 C13         -1.1600    -1.9950     0.9770 ca         1 3Z6      -0.128300
     19 C20         -2.4980    -1.8580     0.5780 ca         1 3Z6      -0.065000
     20 C14         -0.2860    -0.9320     0.9040 ca         1 3Z6      -0.025000
     21 C19         -0.7030     0.3210     0.4190 ca         1 3Z6      -0.148000
     22 C18         -2.0450     0.4730     0.0180 ca         1 3Z6      -0.086000
     23 C17         -2.9500    -0.6090     0.1000 ca         1 3Z6      -0.035800
     24 C5          -4.3370    -0.4490    -0.3270 cc         1 3Z6      -0.057400
     25 C1          -5.3070     0.5670    -0.0190 ca         1 3Z6      -0.246800
     26 C6          -4.9070    -1.3040    -1.2530 cd         1 3Z6      -0.160100
     27 N3          -6.2100    -0.8340    -1.5320 na         1 3Z6      -0.178400
     28 C25         -7.2020    -1.3930    -2.4630 c3         1 3Z6       0.067900
     29 C2          -6.4310     0.3100    -0.7670 ca         1 3Z6       0.152500
     30 N1          -7.5220     1.0970    -0.6710 nb         1 3Z6      -0.234000
     31 C3          -7.4400     2.1320     0.2000 ca         1 3Z6       0.198300
     32 C24         -8.6630     3.0220     0.3230 c3         1 3Z6      -0.132400
     33 N2          -6.3820     2.4360     0.9910 nb         1 3Z6      -0.306000
     34 C4          -5.3090     1.6420     0.8770 ca         1 3Z6       0.430900
     35 N5          -4.2740     1.9280     1.7020 nv         1 3Z6      -1.066900
     36 H1           5.0530     1.3110     0.7300 ha         1 3Z6       0.134000
     37 H2           7.2030    -1.0580    -2.1960 ha         1 3Z6       0.149000
     38 H3           2.9500    -1.5150    -1.7700 ha         1 3Z6       0.136000
     39 H4           2.6070     1.3290     0.6610 hc         1 3Z6       0.077200
     40 H5           1.7520     0.3300    -0.5170 hc         1 3Z6       0.077200
     41 H6           1.7240    -3.3750     1.7100 h1         1 3Z6       0.065200
     42 H7          -0.3970    -4.0160     0.7650 hc         1 3Z6       0.063700
     43 H8          -3.1810    -2.7020     0.6470 ha         1 3Z6       0.121000
     44 H9          -0.0360     1.1760     0.3750 ha         1 3Z6       0.120000
     45 H10         -2.3850     1.4330    -0.3640 ha         1 3Z6       0.129000
     46 H11         -4.4820    -2.1740    -1.7450 h4         1 3Z6       0.218000
     47 H12         -8.1120    -1.6640    -1.9120 h1         1 3Z6       0.055367
     48 H13         -7.4510    -0.6470    -3.2280 h1         1 3Z6       0.055367
     49 H14         -6.7950    -2.2870    -2.9490 h1         1 3Z6       0.055367
     50 H15         -9.3400     2.6460     1.1000 hc         1 3Z6       0.056367
     51 H16         -8.3870     4.0500     0.5880 hc         1 3Z6       0.056367
     52 H17         -9.2250     3.0640    -0.6180 hc         1 3Z6       0.056367
     53 H18         -4.4470     2.5410     2.4930 hn         1 3Z6       0.492000
     54 H19         -3.5440     1.2300     1.8070 hn         1 3Z6       0.492000
     55 H20          0.9420    -2.5650     3.0920 h1         1 3Z6       0.065200
     56 H21         -1.0650    -3.6870     2.3680 hc         1 3Z6       0.063700
@<TRIPOS>BOND
     1     1     2 1   
     2     2     3 1   
     3     2     4 1   
     4     2     5 1   
     5     5     6 ar  
     6     5     7 ar  
     7     6    11 ar  
     8     6    36 1   
     9     7     8 ar  
    10     7    37 1   
    11     8     9 1   
    12     8    10 ar  
    13    10    11 ar  
    14    10    38 1   
    15    11    12 1   
    16    12    13 1   
    17    12    39 1   
    18    12    40 1   
    19    13    14 2   
    20    13    15 1   
    21    15    16 1   
    22    15    20 1   
    23    16    17 1   
    24    16    41 1   
    25    16    55 1   
    26    17    18 1   
    27    17    42 1   
    28    17    56 1   
    29    18    19 ar  
    30    18    20 ar  
    31    19    23 ar  
    32    19    43 1   
    33    20    21 ar  
    34    21    22 ar  
    35    21    44 1   
    36    22    23 ar  
    37    22    45 1   
    38    23    24 1   
    39    24    25 1   
    40    24    26 2   
    41    25    29 ar  
    42    25    34 ar  
    43    26    27 1   
    44    26    46 1   
    45    27    28 1   
    46    27    29 1   
    47    28    47 1   
    48    28    48 1   
    49    28    49 1   
    50    29    30 ar  
    51    30    31 ar  
    52    31    32 1   
    53    31    33 ar  
    54    32    50 1   
    55    32    51 1   
    56    32    52 1   
    57    33    34 ar  
    58    34    35 1   
    59    35    53 1   
    60    35    54 1   
@<TRIPOS>SUBSTRUCTURE
     1 3Z6         1 TEMP              0 ****  ****    0 ROOT
