@<TRIPOS>MOLECULE
3Z6
   56    60     1     0     0
SMALL
bcc


@<TRIPOS>ATOM
      1 F1           8.0540     1.9490    -0.1820 f          1 3Z6      -0.232300
      2 C23          7.0390     1.4510     0.5320 c3         1 3Z6       0.722200
      3 F2           7.5800     0.6880     1.4940 f          1 3Z6      -0.232300
      4 F3           6.4460     2.4810     1.1440 f          1 3Z6      -0.232300
      5 C9           6.0820     0.6660    -0.3110 ca         1 3Z6      -0.169300
      6 C8           4.7540     0.5570     0.0760 ca         1 3Z6      -0.076000
      7 C10          6.5490     0.0110    -1.4440 ca         1 3Z6      -0.119000
      8 C11          5.6490    -0.7420    -2.1680 ca         1 3Z6       0.133900
      9 F4           6.0800    -1.3750    -3.2670 f          1 3Z6      -0.135900
     10 C12          4.3210    -0.8640    -1.8080 ca         1 3Z6      -0.131000
     11 C7           3.8670    -0.2080    -0.6720 ca         1 3Z6      -0.048300
     12 C22          2.4300    -0.3290    -0.2580 c3         1 3Z6      -0.113100
     13 C21          2.2360    -1.4730     0.7170 c          1 3Z6       0.677100
     14 O1           3.1890    -2.0180     1.2470 o          1 3Z6      -0.574100
     15 N4           0.9730    -1.8930     0.9790 n          1 3Z6      -0.384000
     16 C15          0.7790    -3.0730     1.8370 c5         1 3Z6       0.095000
     17 C16         -0.6630    -3.5110     1.5720 c5         1 3Z6      -0.044100
     18 C13         -1.2730    -2.3030     0.9290 ca         1 3Z6      -0.128300
     19 C20         -2.6010    -2.0380     0.6780 ca         1 3Z6      -0.083000
     20 C14         -0.2770    -1.3890     0.5810 ca         1 3Z6       0.067600
     21 C19         -0.6270    -0.1840    -0.0150 ca         1 3Z6      -0.166000
     22 C18         -1.9700     0.0660    -0.2780 ca         1 3Z6      -0.104000
     23 C17         -2.9750    -0.8390     0.0620 ca         1 3Z6      -0.035800
     24 C5          -4.3830    -0.5600    -0.2360 cc         1 3Z6      -0.057400
     25 C1          -5.1370     0.6430    -0.0290 ca         1 3Z6      -0.377400
     26 C6          -5.2500    -1.4380    -0.8290 cd         1 3Z6      -0.110100
     27 N3          -6.4760    -0.8520    -1.0120 na         1 3Z6      -0.149100
     28 C25         -7.6460    -1.4900    -1.5680 c3         1 3Z6       0.038600
     29 C2          -6.4240     0.4130    -0.5280 ca         1 3Z6       0.480800
     30 N1          -7.4390     1.2780    -0.5260 nb         1 3Z6      -0.760000
     31 C3          -7.1390     2.4410     0.0210 ca         1 3Z6       0.724300
     32 C24         -8.2030     3.4950     0.0480 c3         1 3Z6      -0.132400
     33 N2          -5.9690     2.7780     0.5750 nb         1 3Z6      -0.832000
     34 C4          -4.9650     1.9020     0.5830 ca         1 3Z6       0.759200
     35 N5          -3.8170     2.2800     1.1750 nv         1 3Z6      -0.956500
     36 H1           4.3930     1.0700     0.9580 ha         1 3Z6       0.152000
     37 H2           7.5790     0.0780    -1.7680 ha         1 3Z6       0.167000
     38 H3           3.6490    -1.4630    -2.4100 ha         1 3Z6       0.154000
     39 H4           2.1090     0.5990     0.2230 hc         1 3Z6       0.077200
     40 H5           1.7950    -0.4640    -1.1350 hc         1 3Z6       0.077200
     41 H6           1.5030    -3.8440     1.5880 h1         1 3Z6       0.065200
     42 H7          -0.7010    -4.3670     0.8940 hc         1 3Z6       0.063700
     43 H8          -3.3600    -2.7530     0.9730 ha         1 3Z6       0.139000
     44 H9           0.0920     0.5730    -0.2810 ha         1 3Z6       0.138000
     45 H10         -2.2310     0.9940    -0.7710 ha         1 3Z6       0.147000
     46 H11         -5.0690    -2.4460    -1.1700 h4         1 3Z6       0.168000
     47 H12         -8.2890    -1.8900    -0.7840 h1         1 3Z6       0.055367
     48 H13         -8.2140    -0.7730    -2.1550 h1         1 3Z6       0.055367
     49 H14         -7.3360    -2.3050    -2.2160 h1         1 3Z6       0.055367
     50 H15         -8.4350     3.7810     1.0750 hc         1 3Z6       0.056367
     51 H16         -7.8630     4.3960    -0.4650 hc         1 3Z6       0.056367
     52 H17         -9.1140     3.1450    -0.4310 hc         1 3Z6       0.056367
     53 H18         -3.8280     3.1210     1.7280 hn         1 3Z6       0.436800
     54 H19         -3.1240     1.5930     1.4170 hn         1 3Z6       0.436800
     55 H20          0.9280    -2.7930     2.8820 h1         1 3Z6       0.065200
     56 H21         -1.1730    -3.8020     2.4900 hc         1 3Z6       0.063700
@<TRIPOS>BOND
     1     1     2 1   
     2     2     3 1   
     3     2     4 1   
     4     2     5 1   
     5     5     6 ar  
     6     5     7 ar  
     7     6    11 ar  
     8     6    36 1   
     9     7     8 ar  
    10     7    37 1   
    11     8     9 1   
    12     8    10 ar  
    13    10    11 ar  
    14    10    38 1   
    15    11    12 1   
    16    12    13 1   
    17    12    39 1   
    18    12    40 1   
    19    13    14 2   
    20    13    15 1   
    21    15    16 1   
    22    15    20 1   
    23    16    17 1   
    24    16    41 1   
    25    16    55 1   
    26    17    18 1   
    27    17    42 1   
    28    17    56 1   
    29    18    19 ar  
    30    18    20 ar  
    31    19    23 ar  
    32    19    43 1   
    33    20    21 ar  
    34    21    22 ar  
    35    21    44 1   
    36    22    23 ar  
    37    22    45 1   
    38    23    24 1   
    39    24    25 1   
    40    24    26 2   
    41    25    29 ar  
    42    25    34 ar  
    43    26    27 1   
    44    26    46 1   
    45    27    28 1   
    46    27    29 1   
    47    28    47 1   
    48    28    48 1   
    49    28    49 1   
    50    29    30 ar  
    51    30    31 ar  
    52    31    32 1   
    53    31    33 ar  
    54    32    50 1   
    55    32    51 1   
    56    32    52 1   
    57    33    34 ar  
    58    34    35 1   
    59    35    53 1   
    60    35    54 1   
@<TRIPOS>SUBSTRUCTURE
     1 3Z6         1 TEMP              0 ****  ****    0 ROOT
