@<TRIPOS>MOLECULE
3Z7
   17    17     1     0     0
SMALL
No Charge or Current Charge


@<TRIPOS>ATOM
      1 C1          -1.6670     0.2520    -0.0660 ca         1 3Z7       0.049100
      2 C2          -0.2980     0.5950     0.0150 ca         1 3Z7      -0.132000
      3 C3          -2.0400    -1.1090    -0.1050 ca         1 3Z7       0.133100
      4 C4          -1.0640    -2.1170    -0.0630 ca         1 3Z7      -0.127000
      5 C5           0.6750    -0.4200     0.0560 ca         1 3Z7      -0.022900
      6 C6           0.2970    -1.7730     0.0180 ca         1 3Z7      -0.077000
      7 O7          -2.6700     1.2070    -0.1100 os         1 3Z7      -0.367100
      8 Br8          2.5270     0.0460     0.1660 br         1 3Z7      -0.100100
      9 O9          -3.3600    -1.4450    -0.1830 oh         1 3Z7      -0.530100
     10 C10         -2.3900     2.6190    -0.0770 c3         1 3Z7       0.155900
     11 H11          0.0260     1.6310     0.0460 ha         1 3Z7       0.132000
     12 H12         -1.3600    -3.1620    -0.0930 ha         1 3Z7       0.135000
     13 H13          1.0550    -2.5520     0.0500 ha         1 3Z7       0.133000
     14 H14         -3.8620    -0.5990    -0.2000 ho         1 3Z7       0.484000
     15 H15         -1.8680     2.8920     0.8500 h1         1 3Z7       0.044700
     16 H16         -1.7680     2.9150    -0.9320 h1         1 3Z7       0.044700
     17 H17         -3.3240     3.1930    -0.1220 h1         1 3Z7       0.044700
@<TRIPOS>BOND
     1     1     2 ar  
     2     1     3 ar  
     3     1     7 1   
     4     2     5 ar  
     5     2    11 1   
     6     3     4 ar  
     7     3     9 1   
     8     4     6 ar  
     9     4    12 1   
    10     5     6 ar  
    11     5     8 1   
    12     6    13 1   
    13     7    10 1   
    14     9    14 1   
    15    10    15 1   
    16    10    16 1   
    17    10    17 1   
@<TRIPOS>SUBSTRUCTURE
     1 3Z7         1 TEMP              0 ****  ****    0 ROOT
