@<TRIPOS>MOLECULE
3Z7
   17    17     1     0     0
SMALL
abcg2


@<TRIPOS>ATOM
      1 C1          -1.6420     0.2840    -0.0650 ca         1 3Z7       0.049100
      2 C2          -0.2980     0.6140     0.0140 ca         1 3Z7      -0.132000
      3 C3          -2.0370    -1.0650    -0.1040 ca         1 3Z7       0.133100
      4 C4          -1.0730    -2.0550    -0.0620 ca         1 3Z7      -0.127000
      5 C5           0.6490    -0.4060     0.0540 ca         1 3Z7      -0.022900
      6 C6           0.2800    -1.7350     0.0180 ca         1 3Z7      -0.077000
      7 O7          -2.6530     1.1720    -0.1080 os         1 3Z7      -0.367100
      8 BR8          2.4800     0.0550     0.1620 br         1 3Z7      -0.100100
      9 O9          -3.3350    -1.4120    -0.1800 oh         1 3Z7      -0.530100
     10 C10         -2.3490     2.5540    -0.0740 c3         1 3Z7       0.155900
     11 H11          0.0150     1.6490     0.0440 ha         1 3Z7       0.132000
     12 H12         -1.3790    -3.0930    -0.0910 ha         1 3Z7       0.135000
     13 H13          1.0140    -2.5270     0.0500 ha         1 3Z7       0.133000
     14 H14         -3.8930    -0.6250    -0.2100 ho         1 3Z7       0.484000
     15 H15         -1.8330     2.8300     0.8490 h1         1 3Z7       0.044700
     16 H16         -1.7370     2.8530    -0.9290 h1         1 3Z7       0.044700
     17 H17         -3.2990     3.0800    -0.1190 h1         1 3Z7       0.044700
@<TRIPOS>BOND
     1     1     2 ar  
     2     1     3 ar  
     3     1     7 1   
     4     2     5 ar  
     5     2    11 1   
     6     3     4 ar  
     7     3     9 1   
     8     4     6 ar  
     9     4    12 1   
    10     5     6 ar  
    11     5     8 1   
    12     6    13 1   
    13     7    10 1   
    14     9    14 1   
    15    10    15 1   
    16    10    16 1   
    17    10    17 1   
@<TRIPOS>SUBSTRUCTURE
     1 3Z7         1 TEMP              0 ****  ****    0 ROOT
