@<TRIPOS>MOLECULE
3Z8
   20    21     1     0     0
SMALL
bcc


@<TRIPOS>ATOM
      1 C12         -2.1670     1.6200     0.2370 c6         1 3Z8      -0.051100
      2 C1          -1.6690    -1.2150     0.0860 c          1 3Z8       0.718100
      3 C2          -0.5280    -0.2510     0.0610 ca         1 3Z8      -0.143600
      4 N3          -2.8810    -0.6760    -0.1120 ns         1 3Z8      -0.572900
      5 C4          -0.7560     1.1250     0.1310 ca         1 3Z8      -0.048300
      6 C5           0.7660    -0.7560    -0.0050 ca         1 3Z8      -0.063000
      7 O6          -1.4940    -2.4110     0.2880 o          1 3Z8      -0.635500
      8 C7           0.3360     1.9840     0.1300 ca         1 3Z8      -0.130000
      9 C8           1.8320     0.1220    -0.0110 ca         1 3Z8       0.012400
     10 C9          -3.1010     0.6990    -0.5210 c6         1 3Z8       0.114000
     11 C10          1.6300     1.4940     0.0570 ca         1 3Z8      -0.098000
     12 CL           3.4480    -0.4980    -0.0990 cl         1 3Z8      -0.103400
     13 H19         -2.4610     1.6580     1.2910 hc         1 3Z8       0.064700
     14 H20         -2.2520     2.6350    -0.1520 hc         1 3Z8       0.064700
     15 H13         -3.6630    -1.3130    -0.1440 hn         1 3Z8       0.321500
     16 H14          0.9290    -1.8240    -0.0550 ha         1 3Z8       0.172000
     17 H15          0.1800     3.0540     0.1820 ha         1 3Z8       0.137000
     18 H17         -4.1390     0.9500    -0.3120 h1         1 3Z8       0.046700
     19 H16         -2.9470     0.8100    -1.5990 h1         1 3Z8       0.046700
     20 H18          2.4710     2.1740     0.0520 ha         1 3Z8       0.149000
@<TRIPOS>BOND
     1     1     5 1   
     2     1    10 1   
     3     1    13 1   
     4     1    14 1   
     5     2     3 1   
     6     2     4 1   
     7     2     7 2   
     8     3     5 ar  
     9     3     6 ar  
    10     4    10 1   
    11     4    15 1   
    12     5     8 ar  
    13     6     9 ar  
    14     6    16 1   
    15     8    11 ar  
    16     8    17 1   
    17     9    11 ar  
    18     9    12 1   
    19    10    18 1   
    20    10    19 1   
    21    11    20 1   
@<TRIPOS>SUBSTRUCTURE
     1 3Z8         1 TEMP              0 ****  ****    0 ROOT
