@<TRIPOS>MOLECULE
3Z8
   20    21     1     0     0
SMALL
No Charge or Current Charge


@<TRIPOS>ATOM
      1 C12         -2.1610     1.6480     0.1820 c6         1 3Z8      -0.051100
      2 C1          -1.6720    -1.2500     0.0190 c          1 3Z8       0.575600
      3 C2          -0.5100    -0.2870     0.0400 ca         1 3Z8      -0.143600
      4 N3          -2.9200    -0.7100    -0.1730 ns         1 3Z8      -0.505900
      5 C4          -0.7350     1.1080     0.0920 ca         1 3Z8      -0.048300
      6 C5           0.8160    -0.7730     0.0180 ca         1 3Z8      -0.045000
      7 O6          -1.5380    -2.4540     0.1690 o          1 3Z8      -0.560000
      8 C7           0.3570     1.9970     0.1160 ca         1 3Z8      -0.112000
      9 C8           1.8990     0.1210     0.0340 ca         1 3Z8       0.104000
     10 C9          -3.2000     0.7030    -0.4550 c6         1 3Z8       0.114000
     11 C10          1.6720     1.5040     0.0810 ca         1 3Z8      -0.080000
     12 Cl           3.5470    -0.4970    -0.0010 cl         1 3Z8      -0.195000
     13 H19         -2.4120     1.7900     1.2410 hc         1 3Z8       0.064700
     14 H20         -2.2320     2.6390    -0.2860 hc         1 3Z8       0.064700
     15 H13         -3.6910    -1.3670    -0.1750 hn         1 3Z8       0.321500
     16 H14          1.0100    -1.8420    -0.0190 ha         1 3Z8       0.154000
     17 H15          0.1870     3.0700     0.1670 ha         1 3Z8       0.119000
     18 H17         -4.2100     0.9540    -0.0990 h1         1 3Z8       0.046700
     19 H16         -3.1860     0.8340    -1.5460 h1         1 3Z8       0.046700
     20 H18          2.5140     2.1930     0.0980 ha         1 3Z8       0.131000
@<TRIPOS>BOND
     1     1     5 1   
     2     1    10 1   
     3     1    13 1   
     4     1    14 1   
     5     2     3 1   
     6     2     4 1   
     7     2     7 2   
     8     3     5 ar  
     9     3     6 ar  
    10     4    10 1   
    11     4    15 1   
    12     5     8 ar  
    13     6     9 ar  
    14     6    16 1   
    15     8    11 ar  
    16     8    17 1   
    17     9    11 ar  
    18     9    12 1   
    19    10    18 1   
    20    10    19 1   
    21    11    20 1   
@<TRIPOS>SUBSTRUCTURE
     1 3Z8         1 TEMP              0 ****  ****    0 ROOT
