@<TRIPOS>MOLECULE
3Z9
   87    91     1     0     0
SMALL
No Charge or Current Charge


@<TRIPOS>ATOM
      1 C13         -1.0020     1.0470    -1.3490 c3         1 3Z9       0.209800
      2 C18          2.9450     1.1000    -1.7650 c5         1 3Z9       0.145000
      3 C15          0.5060     1.4640    -1.1260 c          1 3Z9       0.606100
      4 C19          3.5560     0.1760    -2.8590 c5         1 3Z9      -0.084400
      5 C20          2.5340     0.3440    -4.0090 c5         1 3Z9      -0.096400
      6 C21          1.1840     0.2260    -3.2550 c5         1 3Z9       0.104000
      7 C22          3.3560     0.5160    -0.3890 ca         1 3Z9       0.049700
      8 C23         -1.7350    -1.2730    -2.1160 ca         1 3Z9      -0.161000
      9 C24         -1.9160    -2.6580    -1.9010 ca         1 3Z9       0.109100
     10 C34          3.9670    -0.6290     2.1370 ca         1 3Z9      -0.158000
     11 C27         -0.8370    -1.0290     0.1310 ca         1 3Z9      -0.087000
     12 C33          3.0240    -1.2530     1.3040 ca         1 3Z9       0.049000
     13 C1          -3.9580     1.7420     0.8650 ca         1 3Z9      -0.124000
     14 C2          -5.4720     0.9390    -1.3550 ca         1 3Z9      -0.077000
     15 C3          -4.0950     1.1780    -1.4910 ca         1 3Z9      -0.157000
     16 C4          -3.3320     1.5760    -0.3800 ca         1 3Z9       0.313000
     17 C5          -6.0960     1.0900    -0.1040 ca         1 3Z9      -0.101300
     18 C6          -5.3410     1.4940     1.0200 ca         1 3Z9      -0.106600
     19 C7          -6.0030     1.6650     2.3690 c          1 3Z9       0.573600
     20 N8          -7.2900     1.2000     2.4920 ns         1 3Z9      -0.504900
     21 C9          -8.0300     0.4710     1.4550 c6         1 3Z9       0.113000
     22 C10         -7.6040     0.8760     0.0280 c6         1 3Z9      -0.039100
     23 O11         -5.4480     2.1940     3.3210 o          1 3Z9      -0.566000
     24 N12         -1.9630     1.8160    -0.5000 nu         1 3Z9      -0.947200
     25 C14         -1.1950    -0.4540    -1.1040 ca         1 3Z9      -0.127300
     26 O16          0.8330     2.2110    -0.2060 o          1 3Z9      -0.610100
     27 N17          1.4900     0.9210    -1.9850 n          1 3Z9      -0.409800
     28 C25         -1.5480    -3.2290    -0.6600 ca         1 3Z9       0.121100
     29 C26         -1.0080    -2.4050     0.3540 ca         1 3Z9      -0.182000
     30 O28         -1.7360    -4.5890    -0.4740 os         1 3Z9      -0.319100
     31 C29         -1.3250    -5.2700     0.7240 c3         1 3Z9       0.140900
     32 O30         -2.4460    -3.4840    -2.8800 os         1 3Z9      -0.319100
     33 C31         -2.8600    -2.9920    -4.1660 c3         1 3Z9       0.144900
     34 C32          2.7420    -0.6820     0.0550 ca         1 3Z9      -0.186000
     35 C35          4.6110     0.5430     1.7190 ca         1 3Z9       0.005000
     36 C36          4.3230     1.1240     0.4640 ca         1 3Z9      -0.267500
     37 S37          5.2190     2.6440     0.0250 sy         1 3Z9       1.020500
     38 C38          3.9810     3.9740     0.2520 c3         1 3Z9      -0.243700
     39 O39          6.2780     2.8710     1.0180 o          1 3Z9      -0.532000
     40 O40          5.5430     2.6040    -1.4070 o          1 3Z9      -0.532000
     41 C41          3.4050     3.9920     1.6920 c3         1 3Z9      -0.077100
     42 C42          4.5530     5.3550    -0.1580 c3         1 3Z9      -0.077100
     43 C44          2.3020    -3.1810     2.8230 c          1 3Z9       0.646100
     44 O45          1.4550    -4.2410     2.6510 os         1 3Z9      -0.463100
     45 O46          2.9080    -2.9360     3.8570 o          1 3Z9      -0.509000
     46 C47          1.2650    -5.1400     3.7600 c3         1 3Z9       0.169900
     47 H57         -1.2230     1.2610    -2.4020 h1         1 3Z9       0.072700
     48 H58          3.2090     2.1520    -1.9150 h1         1 3Z9       0.076700
     49 H60          4.5690     0.4820    -3.1430 hc         1 3Z9       0.073200
     50 H59          3.6110    -0.8720    -2.5420 hc         1 3Z9       0.073200
     51 H62          2.6340     1.3260    -4.4870 hc         1 3Z9       0.060700
     52 H61          2.6440    -0.4150    -4.7920 hc         1 3Z9       0.060700
     53 H64          0.3690     0.7000    -3.8170 h1         1 3Z9       0.049700
     54 H63          0.9210    -0.8230    -3.0670 h1         1 3Z9       0.049700
     55 H65         -2.0090    -0.8180    -3.0630 ha         1 3Z9       0.115000
     56 H75          4.2240    -1.0370     3.1090 ha         1 3Z9       0.155000
     57 H67         -0.4260    -0.4050     0.9230 ha         1 3Z9       0.129000
     58 H48         -3.3650     2.0520     1.7210 ha         1 3Z9       0.138000
     59 H49         -6.0540     0.6420    -2.2250 ha         1 3Z9       0.108000
     60 H50         -3.6270     1.0640    -2.4630 ha         1 3Z9       0.108000
     61 H51         -7.7250     1.3310     3.3970 hn         1 3Z9       0.317500
     62 H53         -7.8350    -0.6010     1.5980 h1         1 3Z9       0.042700
     63 H52         -9.1090     0.6370     1.5910 h1         1 3Z9       0.042700
     64 H55         -8.1120     1.8110    -0.2410 hc         1 3Z9       0.058200
     65 H54         -7.9540     0.1190    -0.6860 hc         1 3Z9       0.058200
     66 H56         -1.5320     2.2800     0.3030 hn         1 3Z9       0.499000
     67 H66         -0.7260    -2.8120     1.3210 ha         1 3Z9       0.125000
     68 H68         -0.2410    -5.1830     0.8660 h1         1 3Z9       0.043700
     69 H69         -1.8340    -4.8560     1.6040 h1         1 3Z9       0.043700
     70 H70         -1.5740    -6.3360     0.6590 h1         1 3Z9       0.043700
     71 H72         -3.2510    -3.8140    -4.7790 h1         1 3Z9       0.040033
     72 H71         -3.6520    -2.2400    -4.0600 h1         1 3Z9       0.040033
     73 H73         -2.0140    -2.5420    -4.7020 h1         1 3Z9       0.040033
     74 H74          2.0160    -1.1780    -0.5840 ha         1 3Z9       0.120000
     75 H76          5.3390     0.9970     2.3890 ha         1 3Z9       0.148000
     76 H77          3.1620     3.7310    -0.4310 h1         1 3Z9       0.106700
     77 H78          4.1910     4.1880     2.4320 hc         1 3Z9       0.052700
     78 H79          2.6430     4.7750     1.7910 hc         1 3Z9       0.052700
     79 H80          2.9280     3.0360     1.9400 hc         1 3Z9       0.052700
     80 H83          4.9010     5.3430    -1.1980 hc         1 3Z9       0.052700
     81 H81          3.7840     6.1330    -0.0730 hc         1 3Z9       0.052700
     82 H82          5.3970     5.6390     0.4830 hc         1 3Z9       0.052700
     83 H84          1.7420    -2.8110     0.9260 hn         1 3Z9       0.172000
     84 H85          0.5660    -5.9400     3.4880 h1         1 3Z9       0.053367
     85 H87          2.2150    -5.6040     4.0550 h1         1 3Z9       0.053367
     86 H86          0.8530    -4.6100     4.6290 h1         1 3Z9       0.053367
     87 N43          2.3300    -2.4400     1.6590 ns         1 3Z9      -0.141000
@<TRIPOS>BOND
     1     1     3 1   
     2     1    24 1   
     3     1    25 1   
     4     1    47 1   
     5     2     4 1   
     6     2     7 1   
     7     2    27 1   
     8     2    48 1   
     9     3    26 2   
    10     3    27 1   
    11     4     5 1   
    12     4    49 1   
    13     4    50 1   
    14     5     6 1   
    15     5    51 1   
    16     5    52 1   
    17     6    27 1   
    18     6    53 1   
    19     6    54 1   
    20     7    34 ar  
    21     7    36 ar  
    22     8     9 ar  
    23     8    25 ar  
    24     8    55 1   
    25     9    28 ar  
    26     9    32 1   
    27    10    12 ar  
    28    10    35 ar  
    29    10    56 1   
    30    11    25 ar  
    31    11    29 ar  
    32    11    57 1   
    33    12    34 ar  
    34    12    87 1   
    35    13    16 ar  
    36    13    18 ar  
    37    13    58 1   
    38    14    15 ar  
    39    14    17 ar  
    40    14    59 1   
    41    15    16 ar  
    42    15    60 1   
    43    16    24 1   
    44    17    18 ar  
    45    17    22 1   
    46    18    19 1   
    47    19    20 1   
    48    19    23 2   
    49    20    21 1   
    50    20    61 1   
    51    21    22 1   
    52    21    62 1   
    53    21    63 1   
    54    22    64 1   
    55    22    65 1   
    56    24    66 1   
    57    28    29 ar  
    58    28    30 1   
    59    29    67 1   
    60    30    31 1   
    61    31    68 1   
    62    31    69 1   
    63    31    70 1   
    64    32    33 1   
    65    33    71 1   
    66    33    72 1   
    67    33    73 1   
    68    34    74 1   
    69    35    36 ar  
    70    35    75 1   
    71    36    37 1   
    72    37    38 1   
    73    37    39 2   
    74    37    40 2   
    75    38    41 1   
    76    38    42 1   
    77    38    76 1   
    78    41    77 1   
    79    41    78 1   
    80    41    79 1   
    81    42    80 1   
    82    42    81 1   
    83    42    82 1   
    84    43    44 1   
    85    43    45 2   
    86    43    87 1   
    87    44    46 1   
    88    46    84 1   
    89    46    85 1   
    90    46    86 1   
    91    83    87 1   
@<TRIPOS>SUBSTRUCTURE
     1 3Z9         1 TEMP              0 ****  ****    0 ROOT
