@<TRIPOS>MOLECULE
3Z9
   87    91     1     0     0
SMALL
bcc


@<TRIPOS>ATOM
      1 C13         -1.0680     0.8290    -1.2630 c3         1 3Z9       0.209800
      2 C18          2.7090     1.0780    -1.7180 c5         1 3Z9       0.145000
      3 C15          0.3850     1.2570    -1.0530 c          1 3Z9       0.673100
      4 C19          3.3800     0.4120    -2.9280 c5         1 3Z9      -0.084400
      5 C20          2.3020     0.4560    -4.0020 c5         1 3Z9      -0.096400
      6 C21          1.0370     0.1510    -3.2150 c5         1 3Z9       0.104000
      7 C22          3.1950     0.5050    -0.4030 ca         1 3Z9       0.049700
      8 C23         -1.5950    -1.5420    -1.9770 ca         1 3Z9      -0.179000
      9 C24         -1.7200    -2.8990    -1.7320 ca         1 3Z9       0.109100
     10 C34          4.0420    -0.7580     1.9700 ca         1 3Z9      -0.176000
     11 C27         -0.8790    -1.1630     0.2770 ca         1 3Z9      -0.105000
     12 C33          3.1210    -1.3900     1.1320 ca         1 3Z9       0.141600
     13 C1          -3.9540     2.0440     0.7260 ca         1 3Z9      -0.142000
     14 C2          -5.3910     0.9130    -1.3400 ca         1 3Z9      -0.095000
     15 C3          -4.0070     0.9620    -1.4110 ca         1 3Z9      -0.175000
     16 C4          -3.2590     1.5340    -0.3750 ca         1 3Z9       0.174600
     17 C5          -6.0840     1.4170    -0.2490 ca         1 3Z9      -0.101300
     18 C6          -5.3380     1.9870     0.7870 ca         1 3Z9      -0.106600
     19 C7          -6.0240     2.5690     1.9780 c          1 3Z9       0.716100
     20 N8          -7.3260     2.2610     2.1020 ns         1 3Z9      -0.571900
     21 C9          -8.0040     1.2650     1.2940 c6         1 3Z9       0.113000
     22 C10         -7.5820     1.4020    -0.1550 c6         1 3Z9      -0.039100
     23 O11         -5.4360     3.2900     2.7770 o          1 3Z9      -0.641500
     24 N12         -1.8900     1.6520    -0.4210 nu         1 3Z9      -0.753600
     25 C14         -1.1770    -0.6620    -0.9770 ca         1 3Z9      -0.127300
     26 O16          0.7060     1.9230    -0.0770 o          1 3Z9      -0.610100
     27 N17          1.2880     0.8090    -1.9360 n          1 3Z9      -0.476800
     28 C25         -1.4230    -3.4020    -0.4500 ca         1 3Z9       0.121100
     29 C26         -0.9990    -2.5270     0.5390 ca         1 3Z9      -0.200000
     30 O28         -1.5890    -4.7270    -0.2950 os         1 3Z9      -0.295900
     31 C29         -1.3600    -5.2870     0.9810 c3         1 3Z9       0.117700
     32 O30         -2.1230    -3.8100    -2.6360 os         1 3Z9      -0.295900
     33 C31         -2.4400    -3.3660    -3.9390 c3         1 3Z9       0.121700
     34 C32          2.7230    -0.7460    -0.0390 ca         1 3Z9      -0.204000
     35 C35          4.5280     0.4840     1.6140 ca         1 3Z9      -0.013000
     36 C36          4.1190     1.1210     0.4470 ca         1 3Z9      -0.267500
     37 S37          4.8170     2.7220     0.1270 sy         1 3Z9       1.051300
     38 C38          3.4980     3.9020     0.5050 c3         1 3Z9      -0.132900
     39 O39          5.9020     2.9370     1.0880 o          1 3Z9      -0.602800
     40 O40          5.1540     2.8260    -1.2960 o          1 3Z9      -0.602800
     41 C41          3.0940     3.7930     1.9650 c3         1 3Z9      -0.077100
     42 C42          3.9800     5.2930     0.1210 c3         1 3Z9      -0.077100
     43 C44          2.7610    -3.4560     2.4450 c          1 3Z9       0.762100
     44 O45          2.0640    -4.5750     2.2770 os         1 3Z9      -0.439900
     45 O46          3.4560    -3.2200     3.4040 o          1 3Z9      -0.558000
     46 C47          2.1320    -5.5470     3.3190 c3         1 3Z9       0.146700
     47 H57         -1.3370     1.0060    -2.3100 h1         1 3Z9       0.072700
     48 H58          2.8710     2.1540    -1.7690 h1         1 3Z9       0.076700
     49 H60          4.2990     0.9250    -3.2020 hc         1 3Z9       0.073200
     50 H59          3.6320    -0.6240    -2.6940 hc         1 3Z9       0.073200
     51 H62          2.2380     1.4510    -4.4470 hc         1 3Z9       0.060700
     52 H61          2.4700    -0.2640    -4.8020 hc         1 3Z9       0.060700
     53 H64          0.1390     0.5380    -3.6960 h1         1 3Z9       0.049700
     54 H63          0.9080    -0.9270    -3.0800 h1         1 3Z9       0.049700
     55 H65         -1.8290    -1.1440    -2.9570 ha         1 3Z9       0.133000
     56 H75          4.3820    -1.2130     2.8840 ha         1 3Z9       0.173000
     57 H67         -0.5530    -0.5070     1.0740 ha         1 3Z9       0.147000
     58 H48         -3.4030     2.4890     1.5450 ha         1 3Z9       0.156000
     59 H49         -5.9380     0.4650    -2.1600 ha         1 3Z9       0.126000
     60 H50         -3.5210     0.5530    -2.2860 ha         1 3Z9       0.126000
     61 H51         -7.7930     2.5980     2.9300 hn         1 3Z9       0.317500
     62 H53         -7.7800     0.2560     1.6560 h1         1 3Z9       0.042700
     63 H52         -9.0760     1.4190     1.4010 h1         1 3Z9       0.042700
     64 H55         -7.9960     2.3260    -0.5720 hc         1 3Z9       0.058200
     65 H54         -7.9970     0.5780    -0.7370 hc         1 3Z9       0.058200
     66 H56         -1.4440     1.9480     0.4340 hn         1 3Z9       0.443800
     67 H66         -0.7640    -2.8870     1.5320 ha         1 3Z9       0.143000
     68 H68         -0.3230    -5.1590     1.3000 h1         1 3Z9       0.043700
     69 H69         -2.0180    -4.8560     1.7410 h1         1 3Z9       0.043700
     70 H70         -1.5710    -6.3490     0.8960 h1         1 3Z9       0.043700
     71 H72         -2.7320    -4.2490    -4.5030 h1         1 3Z9       0.040033
     72 H71         -3.2740    -2.6590    -3.9410 h1         1 3Z9       0.040033
     73 H73         -1.5830    -2.9020    -4.4340 h1         1 3Z9       0.040033
     74 H74          2.0080    -1.2400    -0.6870 ha         1 3Z9       0.138000
     75 H76          5.2400     0.9630     2.2700 ha         1 3Z9       0.166000
     76 H77          2.6580     3.6030    -0.1250 h1         1 3Z9       0.106700
     77 H78          3.9110     4.0670     2.6310 hc         1 3Z9       0.052700
     78 H79          2.2690     4.4810     2.1480 hc         1 3Z9       0.052700
     79 H80          2.7480     2.7930     2.2200 hc         1 3Z9       0.052700
     80 H83          4.2480     5.3620    -0.9320 hc         1 3Z9       0.052700
     81 H81          3.1730     6.0020     0.3030 hc         1 3Z9       0.052700
     82 H82          4.8350     5.6020     0.7230 hc         1 3Z9       0.052700
     83 H84          1.9360    -2.9820     0.6600 hn         1 3Z9       0.338500
     84 H85          1.5200    -6.3790     2.9840 h1         1 3Z9       0.053367
     85 H87          3.1530    -5.8930     3.4770 h1         1 3Z9       0.053367
     86 H86          1.7310    -5.1590     4.2540 h1         1 3Z9       0.053367
     87 N43          2.5610    -2.6360     1.3740 ns         1 3Z9      -0.467100
@<TRIPOS>BOND
     1     1     3 1   
     2     1    24 1   
     3     1    25 1   
     4     1    47 1   
     5     2     4 1   
     6     2     7 1   
     7     2    27 1   
     8     2    48 1   
     9     3    26 2   
    10     3    27 1   
    11     4     5 1   
    12     4    49 1   
    13     4    50 1   
    14     5     6 1   
    15     5    51 1   
    16     5    52 1   
    17     6    27 1   
    18     6    53 1   
    19     6    54 1   
    20     7    34 ar  
    21     7    36 ar  
    22     8     9 ar  
    23     8    25 ar  
    24     8    55 1   
    25     9    28 ar  
    26     9    32 1   
    27    10    12 ar  
    28    10    35 ar  
    29    10    56 1   
    30    11    25 ar  
    31    11    29 ar  
    32    11    57 1   
    33    12    34 ar  
    34    12    87 1   
    35    13    16 ar  
    36    13    18 ar  
    37    13    58 1   
    38    14    15 ar  
    39    14    17 ar  
    40    14    59 1   
    41    15    16 ar  
    42    15    60 1   
    43    16    24 1   
    44    17    18 ar  
    45    17    22 1   
    46    18    19 1   
    47    19    20 1   
    48    19    23 2   
    49    20    21 1   
    50    20    61 1   
    51    21    22 1   
    52    21    62 1   
    53    21    63 1   
    54    22    64 1   
    55    22    65 1   
    56    24    66 1   
    57    28    29 ar  
    58    28    30 1   
    59    29    67 1   
    60    30    31 1   
    61    31    68 1   
    62    31    69 1   
    63    31    70 1   
    64    32    33 1   
    65    33    71 1   
    66    33    72 1   
    67    33    73 1   
    68    34    74 1   
    69    35    36 ar  
    70    35    75 1   
    71    36    37 1   
    72    37    38 1   
    73    37    39 2   
    74    37    40 2   
    75    38    41 1   
    76    38    42 1   
    77    38    76 1   
    78    41    77 1   
    79    41    78 1   
    80    41    79 1   
    81    42    80 1   
    82    42    81 1   
    83    42    82 1   
    84    43    44 1   
    85    43    45 2   
    86    43    87 1   
    87    44    46 1   
    88    46    84 1   
    89    46    85 1   
    90    46    86 1   
    91    83    87 1   
@<TRIPOS>SUBSTRUCTURE
     1 3Z9         1 TEMP              0 ****  ****    0 ROOT
