@<TRIPOS>MOLECULE
3ZA
   31    30     1     0     0
SMALL
No Charge or Current Charge


@<TRIPOS>ATOM
      1 O6          -4.7300    -0.9350     0.7750 oh         1 3ZA      -0.432100
      2 C5          -2.0780     0.0340     0.1360 c3         1 3ZA      -0.138400
      3 C3           0.5150    -0.1390     0.2820 c3         1 3ZA      -0.197700
      4 O2           5.1530    -0.0530    -0.8840 o          1 3ZA      -0.761000
      5 O1           4.7050     1.7650     0.1730 o          1 3ZA      -0.761000
      6 C7           0.5270    -1.6110    -0.2080 c          1 3ZA       0.719000
      7 C8          -3.3250     0.8020    -0.3460 c          1 3ZA       0.611100
      8 C1           3.1470    -0.0740     0.4760 c3         1 3ZA       0.034500
      9 C2           1.8480     0.5990    -0.0560 c3         1 3ZA      -0.069400
     10 C4          -0.7110     0.6400    -0.2710 c3         1 3ZA      -0.040400
     11 N1           3.1030    -0.1660     1.9830 n8         1 3ZA      -0.993200
     12 C6           4.4320     0.6150    -0.1530 c          1 3ZA       0.721000
     13 O5          -3.2350     1.8290    -1.0100 o          1 3ZA      -0.607100
     14 N2          -4.6010     0.2800     0.0060 n          1 3ZA      -0.308300
     15 C9          -5.8680     0.9110    -0.4190 c3         1 3ZA       0.092300
     16 H1          -4.7850    -0.6460     1.7150 ho         1 3ZA       0.432000
     17 H2          -2.1610    -0.0860     1.2220 hc         1 3ZA       0.073700
     18 H3          -2.1850    -1.0040    -0.1980 hc         1 3ZA       0.073700
     19 H4           0.4100    -0.1480     1.3750 hc         1 3ZA       0.011700
     20 H6           3.1550    -1.1040     0.0950 h1         1 3ZA       0.065700
     21 H7           1.9310     0.6850    -1.1470 hc         1 3ZA       0.025700
     22 H8           1.7980     1.6260     0.3260 hc         1 3ZA       0.025700
     23 H9          -0.6500     0.6880    -1.3650 hc         1 3ZA       0.036200
     24 H10         -0.6660     1.6750     0.0930 hc         1 3ZA       0.036200
     25 H11          3.1540     0.7850     2.3670 hn         1 3ZA       0.376000
     26 H12          2.1700    -0.4940     2.2570 hn         1 3ZA       0.376000
     27 H15         -5.9070     0.9560    -1.5150 h1         1 3ZA       0.033033
     28 H16         -6.7240     0.3290    -0.0550 h1         1 3ZA       0.033033
     29 H17         -5.9270     1.9290    -0.0130 h1         1 3ZA       0.033033
     30 O3           0.6380    -1.8310    -1.4060 o          1 3ZA      -0.750500
     31 O4           0.4110    -2.4970     0.6260 o          1 3ZA      -0.750500
@<TRIPOS>BOND
     1     1    14 1   
     2     1    16 1   
     3     2     7 1   
     4     2    10 1   
     5     2    17 1   
     6     2    18 1   
     7     3     6 1   
     8     3     9 1   
     9     3    10 1   
    10     3    19 1   
    11     4    12 1   
    12     5    12 1   
    13     6    30 1   
    14     6    31 1   
    15     7    13 2   
    16     7    14 1   
    17     8     9 1   
    18     8    11 1   
    19     8    12 1   
    20     8    20 1   
    21     9    21 1   
    22     9    22 1   
    23    10    23 1   
    24    10    24 1   
    25    11    25 1   
    26    11    26 1   
    27    14    15 1   
    28    15    27 1   
    29    15    28 1   
    30    15    29 1   
@<TRIPOS>SUBSTRUCTURE
     1 3ZA         1 TEMP              0 ****  ****    0 ROOT
