@<TRIPOS>MOLECULE
3ZA
   31    30     1     0     0
SMALL
bcc


@<TRIPOS>ATOM
      1 O6          -4.5590    -0.8210     0.6550 oh         1 3ZA      -0.393100
      2 C5          -2.0530     0.0120     0.1060 c3         1 3ZA      -0.138400
      3 C3           0.4640    -0.1460     0.2870 c3         1 3ZA      -0.197700
      4 O2           4.5740     0.8040    -1.1390 o          1 3ZA      -0.866300
      5 O1           4.7260     1.5620     0.9500 o          1 3ZA      -0.866300
      6 C7           0.5110    -1.6430    -0.0700 c          1 3ZA       0.929600
      7 C8          -3.2390     0.8230    -0.3650 c          1 3ZA       0.678100
      8 C1           3.0580    -0.0780     0.4590 c3         1 3ZA       0.034500
      9 C2           1.7720     0.5350    -0.1260 c3         1 3ZA      -0.069400
     10 C4          -0.7180     0.5780    -0.3540 c3         1 3ZA      -0.040400
     11 N1           3.0300    -0.3150     1.8940 n8         1 3ZA      -0.882800
     12 C6           4.2350     0.8360     0.0630 c          1 3ZA       0.931600
     13 O5          -3.1300     1.8160    -1.0700 o          1 3ZA      -0.607100
     14 N2          -4.4580     0.4150     0.0670 n          1 3ZA      -0.375300
     15 C9          -5.7120     0.9620    -0.3880 c3         1 3ZA       0.092300
     16 H1          -4.6330    -0.6620     1.6060 ho         1 3ZA       0.393000
     17 H2          -2.0750    -0.0470     1.1990 hc         1 3ZA       0.073700
     18 H3          -2.1630    -1.0170    -0.2450 hc         1 3ZA       0.073700
     19 H4           0.3570    -0.0520     1.3750 hc         1 3ZA       0.011700
     20 H6           3.2200    -1.0500    -0.0210 h1         1 3ZA       0.065700
     21 H7           1.8490     0.5300    -1.2170 hc         1 3ZA       0.025700
     22 H8           1.7140     1.5900     0.1720 hc         1 3ZA       0.025700
     23 H9          -0.6380     0.5160    -1.4410 hc         1 3ZA       0.036200
     24 H10         -0.6560     1.6390    -0.0990 hc         1 3ZA       0.036200
     25 H11          2.8460     0.5580     2.3720 hn         1 3ZA       0.320800
     26 H12          2.2550    -0.9320     2.1020 hn         1 3ZA       0.320800
     27 H15         -6.1380     0.3710    -1.2020 h1         1 3ZA       0.033033
     28 H16         -6.4210     0.9860     0.4390 h1         1 3ZA       0.033033
     29 H17         -5.5590     1.9790    -0.7350 h1         1 3ZA       0.033033
     30 O3           0.3440    -1.9410    -1.2710 o          1 3ZA      -0.855800
     31 O4           0.7400    -2.4480     0.8600 o          1 3ZA      -0.855800
@<TRIPOS>BOND
     1     1    14 1   
     2     1    16 1   
     3     2     7 1   
     4     2    10 1   
     5     2    17 1   
     6     2    18 1   
     7     3     6 1   
     8     3     9 1   
     9     3    10 1   
    10     3    19 1   
    11     4    12 1   
    12     5    12 1   
    13     6    30 1   
    14     6    31 1   
    15     7    13 2   
    16     7    14 1   
    17     8     9 1   
    18     8    11 1   
    19     8    12 1   
    20     8    20 1   
    21     9    21 1   
    22     9    22 1   
    23    10    23 1   
    24    10    24 1   
    25    11    25 1   
    26    11    26 1   
    27    14    15 1   
    28    15    27 1   
    29    15    28 1   
    30    15    29 1   
@<TRIPOS>SUBSTRUCTURE
     1 3ZA         1 TEMP              0 ****  ****    0 ROOT
