@<TRIPOS>MOLECULE
3ZB
   18    19     1     0     0
SMALL
No Charge or Current Charge


@<TRIPOS>ATOM
      1 C1          -0.0470     0.9400    -0.0380 ca         1 3ZB      -0.074200
      2 C2           0.1760    -0.4080    -0.0270 ca         1 3ZB      -0.092800
      3 N3          -1.4070     1.2140    -0.0380 na         1 3ZB      -0.193700
      4 C4           1.0150     1.8550    -0.0470 ca         1 3ZB      -0.117000
      5 C5          -1.1020    -1.0490    -0.0190 cc         1 3ZB      -0.263200
      6 C6           1.4680    -0.9510    -0.0240 ca         1 3ZB      -0.064000
      7 C7          -2.0690    -0.0420    -0.0260 cd         1 3ZB      -0.087300
      8 C8           2.3320     1.3440    -0.0450 ca         1 3ZB      -0.124000
      9 C9           2.5560    -0.0530    -0.0330 ca         1 3ZB       0.080000
     10 C10         -3.5520    -0.2730    -0.0220 c          1 3ZB       0.727200
     11 Cl           4.2020    -0.6730    -0.0300 cl         1 3ZB      -0.266000
     12 O12         -4.2870     0.7060    -0.0290 o          1 3ZB      -0.709000
     13 O13         -3.9760    -1.4210    -0.0120 o          1 3ZB      -0.709000
     14 H14         -1.8510     2.1270    -0.0450 hn         1 3ZB       0.362000
     15 H15          0.8330     2.9280    -0.0560 ha         1 3ZB       0.103000
     16 H16         -1.3040    -2.1180    -0.0100 ha         1 3ZB       0.208000
     17 H17          1.6270    -2.0260    -0.0150 ha         1 3ZB       0.116000
     18 H18          3.1780     2.0270    -0.0520 ha         1 3ZB       0.105000
@<TRIPOS>BOND
     1     1     2 ar  
     2     1     3 1   
     3     1     4 ar  
     4     2     5 1   
     5     2     6 ar  
     6     3     7 1   
     7     3    14 1   
     8     4     8 ar  
     9     4    15 1   
    10     5     7 2   
    11     5    16 1   
    12     6     9 ar  
    13     6    17 1   
    14     7    10 1   
    15     8     9 ar  
    16     8    18 1   
    17     9    11 1   
    18    10    12 1   
    19    10    13 1   
@<TRIPOS>SUBSTRUCTURE
     1 3ZB         1 TEMP              0 ****  ****    0 ROOT
