@<TRIPOS>MOLECULE
3ZB
   18    19     1     0     0
SMALL
abcg2


@<TRIPOS>ATOM
      1 C1          -0.0530     0.9190    -0.0380 ca         1 3ZB      -0.074200
      2 C2           0.1810    -0.4780    -0.0260 ca         1 3ZB      -0.092800
      3 N3          -1.4000     1.1030    -0.0370 na         1 3ZB      -0.193700
      4 C4           0.9910     1.8420    -0.0470 ca         1 3ZB      -0.117000
      5 C5          -1.0980    -1.1070    -0.0190 cc         1 3ZB      -0.263200
      6 C6           1.4980    -0.9530    -0.0240 ca         1 3ZB      -0.064000
      7 C7          -2.0360    -0.1080    -0.0260 cd         1 3ZB      -0.087300
      8 C8           2.2830     1.3570    -0.0440 ca         1 3ZB      -0.124000
      9 C9           2.5170    -0.0270    -0.0330 ca         1 3ZB       0.080000
     10 C10         -3.5390    -0.1830    -0.0220 c          1 3ZB       0.727200
     11 CL           4.1690    -0.5810    -0.0310 cl         1 3ZB      -0.266000
     12 O12         -4.1330     0.9130    -0.0310 o          1 3ZB      -0.709000
     13 O13         -4.0320    -1.3240    -0.0110 o          1 3ZB      -0.709000
     14 H14         -1.8870     1.9840    -0.0450 hn         1 3ZB       0.362000
     15 H15          0.8050     2.9080    -0.0550 ha         1 3ZB       0.103000
     16 H16         -1.2980    -2.1660    -0.0100 ha         1 3ZB       0.208000
     17 H17          1.7070    -2.0140    -0.0160 ha         1 3ZB       0.116000
     18 H18          3.1170     2.0450    -0.0510 ha         1 3ZB       0.105000
@<TRIPOS>BOND
     1     1     2 ar  
     2     1     3 1   
     3     1     4 ar  
     4     2     5 1   
     5     2     6 ar  
     6     3     7 1   
     7     3    14 1   
     8     4     8 ar  
     9     4    15 1   
    10     5     7 2   
    11     5    16 1   
    12     6     9 ar  
    13     6    17 1   
    14     7    10 1   
    15     8     9 ar  
    16     8    18 1   
    17     9    11 1   
    18    10    12 1   
    19    10    13 1   
@<TRIPOS>SUBSTRUCTURE
     1 3ZB         1 TEMP              0 ****  ****    0 ROOT
