@<TRIPOS>MOLECULE
3ZC
   58    62     1     0     0
SMALL
bcc


@<TRIPOS>ATOM
      1 C10          4.7940     0.2130     0.3050 ca         1 3ZC      -0.004000
      2 C13          2.0100     0.1940     0.6130 ca         1 3ZC       0.102100
      3 C17         -1.5280     0.5960     0.0430 ca         1 3ZC      -0.159300
      4 C20         -4.2760     0.0580    -0.0480 ca         1 3ZC       0.156100
      5 C21         -3.7720     1.1310    -0.7310 ca         1 3ZC      -0.271300
      6 C22         -2.3880     1.4290    -0.7040 ca         1 3ZC       0.436600
      7 C24         -0.6700     2.7630    -1.3760 ca         1 3ZC       0.443200
      8 C28         -7.8260    -0.2540    -0.6540 cx         1 3ZC       0.127200
      9 C01          8.7230    -1.5520    -1.9640 c3         1 3ZC       0.093300
     10 C03          6.9130    -0.2060    -1.0400 c          1 3ZC       0.673700
     11 O04          6.5980     0.2360    -2.1380 o          1 3ZC      -0.595100
     12 C05          6.2150     0.2170     0.2170 ca         1 3ZC      -0.130600
     13 C06          6.9680     0.6710     1.2720 ca         1 3ZC      -0.102000
     14 C07          6.3600     1.1510     2.4460 ca         1 3ZC      -0.132000
     15 C08          4.9990     1.1590     2.5580 ca         1 3ZC      -0.097000
     16 C09          4.1880     0.6850     1.5010 ca         1 3ZC      -0.036000
     17 C11          3.9490    -0.2810    -0.7200 ca         1 3ZC      -0.093000
     18 C12          2.5910    -0.2960    -0.5720 ca         1 3ZC      -0.142000
     19 C14          2.7800     0.6770     1.6270 ca         1 3ZC      -0.124000
     20 O15          0.6480     0.1230     0.7760 os         1 3ZC      -0.251200
     21 C16         -0.1520     0.9220     0.0390 ca         1 3ZC       0.183100
     22 C18         -2.0570    -0.5110     0.7510 ca         1 3ZC      -0.174000
     23 C19         -3.3960    -0.7820     0.7120 ca         1 3ZC       0.115100
     24 N23         -1.9520     2.5010    -1.4040 nb         1 3ZC      -0.683000
     25 C25          0.2840     2.0120    -0.6740 ca         1 3ZC      -0.340300
     26 C27         -6.4970     0.4260    -0.7970 c3         1 3ZC       0.174400
     27 C29         -9.0330     0.6090    -0.8160 cx         1 3ZC      -0.146400
     28 C30         -8.6520     0.1090     0.5510 cx         1 3ZC      -0.146400
     29 N31         -7.8430    -1.5750    -1.2200 n8         1 3ZC      -0.860800
     30 O32         -4.0000    -1.8020     1.3360 os         1 3ZC      -0.297900
     31 C33         -3.1990    -2.6770     2.1070 c3         1 3ZC       0.120700
     32 H1          -4.4090     1.7840    -1.3110 ha         1 3ZC       0.157000
     33 H2          -0.3360     3.6280    -1.9390 h4         1 3ZC       0.018100
     34 H3           9.1980    -0.7280    -2.4960 h1         1 3ZC       0.041700
     35 H4           9.5020    -2.1950    -1.5630 h1         1 3ZC       0.041700
     36 H5           8.1350    -2.1280    -2.6800 h1         1 3ZC       0.041700
     37 H6           8.0710    -1.4680     0.0470 hn         1 3ZC       0.319500
     38 H7           8.0480     0.6880     1.1990 ha         1 3ZC       0.135000
     39 H8           6.9770     1.5150     3.2570 ha         1 3ZC       0.137000
     40 H9           4.5230     1.5280     3.4580 ha         1 3ZC       0.137000
     41 H10          4.3720    -0.6650    -1.6350 ha         1 3ZC       0.157000
     42 H11          1.9630    -0.6950    -1.3600 ha         1 3ZC       0.152000
     43 H12          2.3230     1.0470     2.5380 ha         1 3ZC       0.149000
     44 H13         -1.3870    -1.1400     1.3190 ha         1 3ZC       0.152000
     45 H14          1.3230     2.3090    -0.7030 ha         1 3ZC       0.155000
     46 H15         -6.1850     0.4300    -1.8470 h1         1 3ZC       0.049700
     47 H16         -6.5540     1.4640    -0.4520 h1         1 3ZC       0.049700
     48 H17         -8.8970     1.6610    -1.0380 hc         1 3ZC       0.076200
     49 H18         -9.9000     0.1700    -1.2950 hc         1 3ZC       0.076200
     50 H19         -9.2620    -0.6700     0.9910 hc         1 3ZC       0.076200
     51 H20         -8.2550     0.8220     1.2640 hc         1 3ZC       0.076200
     52 H21         -7.4030    -2.2320    -0.5880 hn         1 3ZC       0.352800
     53 H22         -8.7950    -1.8960    -1.3430 hn         1 3ZC       0.352800
     54 H24         -2.4380    -3.1690     1.4970 h1         1 3ZC       0.041700
     55 H25         -2.7080    -2.1550     2.9320 h1         1 3ZC       0.041700
     56 H26         -3.8690    -3.4300     2.5140 h1         1 3ZC       0.041700
     57 O26         -5.5610    -0.3050    -0.0150 os         1 3ZC      -0.300900
     58 N02          7.9150    -1.0750    -0.8660 ns         1 3ZC      -0.570900
@<TRIPOS>BOND
     1     1    12 ar  
     2     1    16 ar  
     3     1    17 ar  
     4     2    18 ar  
     5     2    19 ar  
     6     2    20 1   
     7     3     6 ar  
     8     3    21 ar  
     9     3    22 ar  
    10     4     5 ar  
    11     4    23 ar  
    12     4    57 1   
    13     5     6 ar  
    14     5    32 1   
    15     6    24 ar  
    16     7    24 ar  
    17     7    25 ar  
    18     7    33 1   
    19     8    26 1   
    20     8    27 1   
    21     8    28 1   
    22     8    29 1   
    23     9    34 1   
    24     9    35 1   
    25     9    36 1   
    26     9    58 1   
    27    10    11 2   
    28    10    12 1   
    29    10    58 1   
    30    12    13 ar  
    31    13    14 ar  
    32    13    38 1   
    33    14    15 ar  
    34    14    39 1   
    35    15    16 ar  
    36    15    40 1   
    37    16    19 ar  
    38    17    18 ar  
    39    17    41 1   
    40    18    42 1   
    41    19    43 1   
    42    20    21 1   
    43    21    25 ar  
    44    22    23 ar  
    45    22    44 1   
    46    23    30 1   
    47    25    45 1   
    48    26    46 1   
    49    26    47 1   
    50    26    57 1   
    51    27    28 1   
    52    27    48 1   
    53    27    49 1   
    54    28    50 1   
    55    28    51 1   
    56    29    52 1   
    57    29    53 1   
    58    30    31 1   
    59    31    54 1   
    60    31    55 1   
    61    31    56 1   
    62    37    58 1   
@<TRIPOS>SUBSTRUCTURE
     1 3ZC         1 TEMP              0 ****  ****    0 ROOT
