@<TRIPOS>MOLECULE
3ZC
   58    62     1     0     0
SMALL
No Charge or Current Charge


@<TRIPOS>ATOM
      1 C10          4.7150     0.1800     0.4100 ca         1 3ZC      -0.004000
      2 C13          1.9710     0.6760     0.9610 ca         1 3ZC       0.102100
      3 C17         -1.5490     1.0180     0.2400 ca         1 3ZC      -0.094000
      4 C20         -4.2000     0.1070    -0.0570 ca         1 3ZC       0.156100
      5 C21         -3.7290     1.1990    -0.8170 ca         1 3ZC      -0.188000
      6 C22         -2.4120     1.6630    -0.6790 ca         1 3ZC       0.306000
      7 C24         -0.7430     3.1650    -1.2920 ca         1 3ZC       0.377900
      8 C28         -7.7830    -0.5430    -0.9540 cx         1 3ZC       0.127200
      9 C01          8.4690    -1.6710    -2.4060 c3         1 3ZC       0.093300
     10 C03          6.6630    -0.4000    -1.2000 c          1 3ZC       0.606700
     11 O04          6.2530     0.0940    -2.2410 o          1 3ZC      -0.595100
     12 C05          6.1030    -0.0600     0.1690 ca         1 3ZC      -0.130600
     13 C06          7.0090     0.0510     1.2530 ca         1 3ZC      -0.084000
     14 C07          6.5680     0.4070     2.5350 ca         1 3ZC      -0.114000
     15 C08          5.2110     0.6600     2.7640 ca         1 3ZC      -0.079000
     16 C09          4.2860     0.5470     1.7130 ca         1 3ZC      -0.036000
     17 C11          3.7280     0.0300    -0.5980 ca         1 3ZC      -0.075000
     18 C12          2.3720     0.2760    -0.3240 ca         1 3ZC      -0.124000
     19 C14          2.9250     0.7950     1.9790 ca         1 3ZC      -0.106000
     20 O15          0.6470     0.9090     1.2570 os         1 3ZC      -0.251200
     21 C16         -0.2280     1.4920     0.3650 ca         1 3ZC       0.183100
     22 C18         -2.0100    -0.0760     1.0050 ca         1 3ZC      -0.156000
     23 C19         -3.3370    -0.5360     0.8590 ca         1 3ZC       0.115100
     24 N23         -2.0090     2.7140    -1.4280 nb         1 3ZC      -0.683000
     25 C25          0.1740     2.5880    -0.4100 ca         1 3ZC      -0.257000
     26 C27         -6.4520     0.2240    -1.0900 c3         1 3ZC       0.197600
     27 C29         -9.0780     0.1050    -1.3800 cx         1 3ZC      -0.146400
     28 C30         -8.7970    -0.1280     0.0850 cx         1 3ZC      -0.146400
     29 N31         -7.6450    -1.9650    -1.2070 n8         1 3ZC      -0.971200
     30 O32         -3.8240    -1.6070     1.5920 os         1 3ZC      -0.321100
     31 C33         -3.0200    -2.3220     2.5470 c3         1 3ZC       0.143900
     32 H1          -4.3740     1.7070    -1.5260 ha         1 3ZC       0.139000
     33 H2          -0.4610     4.0170    -1.9100 h4         1 3ZC       0.018100
     34 H3           8.8950    -0.7920    -2.9060 h1         1 3ZC       0.041700
     35 H4           9.2790    -2.3570    -2.1270 h1         1 3ZC       0.041700
     36 H5           7.7800    -2.1830    -3.0910 h1         1 3ZC       0.041700
     37 H6           8.0330    -1.6280    -0.3070 hn         1 3ZC       0.319500
     38 H7           8.0750    -0.1050     1.1040 ha         1 3ZC       0.117000
     39 H8           7.2820     0.4970     3.3500 ha         1 3ZC       0.119000
     40 H9           4.8800     0.9400     3.7620 ha         1 3ZC       0.119000
     41 H10          3.9820    -0.2980    -1.6000 ha         1 3ZC       0.139000
     42 H11          1.6350     0.1450    -1.1120 ha         1 3ZC       0.134000
     43 H12          2.6040     1.0790     2.9770 ha         1 3ZC       0.131000
     44 H13         -1.3320    -0.5580     1.7030 ha         1 3ZC       0.134000
     45 H14          1.1770     2.9960    -0.3310 ha         1 3ZC       0.137000
     46 H15         -6.0970     0.1530    -2.1270 h1         1 3ZC       0.049700
     47 H16         -6.6130     1.2830    -0.8510 h1         1 3ZC       0.049700
     48 H17         -9.0400     1.1280    -1.7450 hc         1 3ZC       0.076200
     49 H18         -9.8300    -0.5190    -1.8580 hc         1 3ZC       0.076200
     50 H19         -9.3680    -0.9030     0.5920 hc         1 3ZC       0.076200
     51 H20         -8.5690     0.7390     0.7010 hc         1 3ZC       0.076200
     52 H21         -6.6780    -2.2370    -0.9920 hn         1 3ZC       0.408000
     53 H22         -8.1880    -2.4860    -0.5100 hn         1 3ZC       0.408000
     54 H24         -2.1450    -2.7730     2.0620 h1         1 3ZC       0.041700
     55 H25         -2.6760    -1.6530     3.3460 h1         1 3ZC       0.041700
     56 H26         -3.6060    -3.1280     3.0080 h1         1 3ZC       0.041700
     57 O26         -5.4970    -0.3630    -0.1810 os         1 3ZC      -0.324100
     58 N02          7.7470    -1.2520    -1.2030 ns         1 3ZC      -0.503900
@<TRIPOS>BOND
     1     1    12 ar  
     2     1    16 ar  
     3     1    17 ar  
     4     2    18 ar  
     5     2    19 ar  
     6     2    20 1   
     7     3     6 ar  
     8     3    21 ar  
     9     3    22 ar  
    10     4     5 ar  
    11     4    23 ar  
    12     4    57 1   
    13     5     6 ar  
    14     5    32 1   
    15     6    24 ar  
    16     7    24 ar  
    17     7    25 ar  
    18     7    33 1   
    19     8    26 1   
    20     8    27 1   
    21     8    28 1   
    22     8    29 1   
    23     9    34 1   
    24     9    35 1   
    25     9    36 1   
    26     9    58 1   
    27    10    11 2   
    28    10    12 1   
    29    10    58 1   
    30    12    13 ar  
    31    13    14 ar  
    32    13    38 1   
    33    14    15 ar  
    34    14    39 1   
    35    15    16 ar  
    36    15    40 1   
    37    16    19 ar  
    38    17    18 ar  
    39    17    41 1   
    40    18    42 1   
    41    19    43 1   
    42    20    21 1   
    43    21    25 ar  
    44    22    23 ar  
    45    22    44 1   
    46    23    30 1   
    47    25    45 1   
    48    26    46 1   
    49    26    47 1   
    50    26    57 1   
    51    27    28 1   
    52    27    48 1   
    53    27    49 1   
    54    28    50 1   
    55    28    51 1   
    56    29    52 1   
    57    29    53 1   
    58    30    31 1   
    59    31    54 1   
    60    31    55 1   
    61    31    56 1   
    62    37    58 1   
@<TRIPOS>SUBSTRUCTURE
     1 3ZC         1 TEMP              0 ****  ****    0 ROOT
