@<TRIPOS>MOLECULE
3ZD
   68    70     1     0     0
SMALL
No Charge or Current Charge


@<TRIPOS>ATOM
      1 C1           5.9770    -0.3790     0.2750 ca         1 3ZD      -0.110000
      2 C2           4.8150    -0.1140     1.0200 ca         1 3ZD      -0.097300
      3 C3           4.5390     1.2870     1.5480 c3         1 3ZD       0.144300
      4 N1           3.6420     2.0220     0.6530 ns         1 3ZD      -0.495900
      5 C4           3.8990    -1.1540     1.2530 ca         1 3ZD      -0.110000
      6 C5           4.1460    -2.4460     0.7570 ca         1 3ZD      -0.076000
      7 C6           5.3250    -2.7310     0.0300 ca         1 3ZD      -0.140900
      8 C7           5.5630    -4.1070    -0.5200 ce         1 3ZD       0.659800
      9 N2           4.6500    -4.9810    -0.6360 n2         1 3ZD      -0.824100
     10 C8           6.2290    -1.6700    -0.2200 ca         1 3ZD      -0.076000
     11 N3           6.8330    -4.4700    -0.8040 nv         1 3ZD      -1.079200
     12 C9           2.2760     2.1110     0.8140 c          1 3ZD       0.592100
     13 C10          1.5230     2.8710    -0.3150 c3         1 3ZD       0.033700
     14 C11          1.8120     4.3890    -0.2910 c3         1 3ZD      -0.109100
     15 N4           0.0710     2.6160    -0.2100 ns         1 3ZD      -0.493900
     16 O1           1.7020     1.6120     1.7750 o          1 3ZD      -0.608100
     17 C14         -0.8190     2.6480    -1.2660 c          1 3ZD       0.587100
     18 C15         -2.2870     2.2070    -0.9220 c3         1 3ZD       0.163500
     19 C16         -3.2890     3.3350    -1.2700 c3         1 3ZD      -0.032100
     20 N5          -2.7200     0.9300    -1.5850 n7         1 3ZD      -0.919300
     21 O2          -0.4730     2.9800    -2.3940 o          1 3ZD      -0.602100
     22 S1          -1.9250    -0.5040    -1.2870 s6         1 3ZD       1.203100
     23 C17         -2.1990    -0.7600     0.4760 c3         1 3ZD      -0.252100
     24 O4          -2.6700    -1.5220    -2.0290 o          1 3ZD      -0.535000
     25 O5          -0.5070    -0.2680    -1.5590 o          1 3ZD      -0.535000
     26 C18         -0.3080    -4.3240     2.0820 ca         1 3ZD      -0.100000
     27 C19          0.3640    -3.0910     2.1230 ca         1 3ZD      -0.110000
     28 C20         -0.2480    -1.9380     1.6000 ca         1 3ZD      -0.085500
     29 C21         -1.5360    -2.0130     1.0370 ca         1 3ZD      -0.081300
     30 C22         -2.2080    -3.2500     1.0010 ca         1 3ZD      -0.085500
     31 C23         -1.5940    -4.4030     1.5210 ca         1 3ZD      -0.110000
     32 C24         -7.2480     2.6710     0.3990 ca         1 3ZD      -0.105000
     33 C25         -6.2110     3.1540     1.2150 ca         1 3ZD      -0.109500
     34 C26         -4.9320     3.3690     0.6730 ca         1 3ZD      -0.108000
     35 C27         -4.6800     3.1010    -0.6870 ca         1 3ZD      -0.086300
     36 C28         -5.7240     2.6170    -1.5000 ca         1 3ZD      -0.108000
     37 C29         -7.0040     2.4020    -0.9580 ca         1 3ZD      -0.109500
     38 H1           6.6880     0.4200     0.0700 ha         1 3ZD       0.117000
     39 H8           7.1280    -1.8340    -0.8110 ha         1 3ZD       0.129500
     40 H31C         4.0990     1.2270     2.5520 h1         1 3ZD       0.066200
     41 H32C         5.4810     1.8440     1.6350 h1         1 3ZD       0.066200
     42 H4           2.9890    -0.9610     1.8170 ha         1 3ZD       0.117000
     43 HA           4.0380     2.4540    -0.1730 hn         1 3ZD       0.321500
     44 H5           3.4180    -3.2320     0.9480 ha         1 3ZD       0.129500
     45 H2           5.0150    -5.7450    -1.2140 hn         1 3ZD       0.371400
     46 H31N         7.5450    -3.8680    -0.4070 hn         1 3ZD       0.461500
     47 H32N         7.0360    -5.4620    -0.7560 hn         1 3ZD       0.461500
     48 H10          1.8830     2.4580    -1.2670 h1         1 3ZD       0.084700
     49 H111         1.2900     4.8980    -1.1100 hc         1 3ZD       0.051033
     50 H112         1.4800     4.8320     0.6560 hc         1 3ZD       0.051033
     51 H113         2.8850     4.5850    -0.4030 hc         1 3ZD       0.051033
     52 HB          -0.2830     2.3080     0.6890 hn         1 3ZD       0.342500
     53 H15         -2.3280     2.0920     0.1690 h1         1 3ZD       0.083700
     54 H161        -2.8960     4.2850    -0.8860 hc         1 3ZD       0.060700
     55 H162        -3.3410     3.4540    -2.3600 hc         1 3ZD       0.060700
     56 HC          -2.5600     1.0070    -2.5900 hn         1 3ZD       0.519000
     57 H171        -1.8100     0.1260     0.9840 h1         1 3ZD       0.103200
     58 H172        -3.2850    -0.7980     0.6070 h1         1 3ZD       0.103200
     59 H19          1.3580    -3.0280     2.5600 ha         1 3ZD       0.115000
     60 H23         -2.1160    -5.3570     1.4900 ha         1 3ZD       0.115000
     61 H20          0.2810    -0.9880     1.6350 ha         1 3ZD       0.119000
     62 H22         -3.2040    -3.3190     0.5690 ha         1 3ZD       0.119000
     63 H24         -8.2390     2.5050     0.8180 ha         1 3ZD       0.117000
     64 H25         -6.3990     3.3630     2.2660 ha         1 3ZD       0.116500
     65 H29         -7.8060     2.0270    -1.5910 ha         1 3ZD       0.116500
     66 H26         -4.1360     3.7440     1.3130 ha         1 3ZD       0.113500
     67 H28         -5.5440     2.4010    -2.5500 ha         1 3ZD       0.113500
     68 H18          0.1660    -5.2170     2.4860 ha         1 3ZD       0.113000
@<TRIPOS>BOND
     1     1     2 ar  
     2     1    10 ar  
     3     1    38 1   
     4     2     3 1   
     5     2     5 ar  
     6     3     4 1   
     7     3    40 1   
     8     3    41 1   
     9     4    12 1   
    10     4    43 1   
    11     5     6 ar  
    12     5    42 1   
    13     6     7 ar  
    14     6    44 1   
    15     7     8 1   
    16     7    10 ar  
    17     8     9 2   
    18     8    11 1   
    19     9    45 1   
    20    10    39 1   
    21    11    46 1   
    22    11    47 1   
    23    12    13 1   
    24    12    16 2   
    25    13    14 1   
    26    13    15 1   
    27    13    48 1   
    28    14    49 1   
    29    14    50 1   
    30    14    51 1   
    31    15    17 1   
    32    15    52 1   
    33    17    18 1   
    34    17    21 2   
    35    18    19 1   
    36    18    20 1   
    37    18    53 1   
    38    19    35 1   
    39    19    54 1   
    40    19    55 1   
    41    20    22 1   
    42    20    56 1   
    43    22    23 1   
    44    22    24 2   
    45    22    25 2   
    46    23    29 1   
    47    23    57 1   
    48    23    58 1   
    49    26    27 ar  
    50    26    31 ar  
    51    26    68 1   
    52    27    28 ar  
    53    27    59 1   
    54    28    29 ar  
    55    28    61 1   
    56    29    30 ar  
    57    30    31 ar  
    58    30    62 1   
    59    31    60 1   
    60    32    33 ar  
    61    32    37 ar  
    62    32    63 1   
    63    33    34 ar  
    64    33    64 1   
    65    34    35 ar  
    66    34    66 1   
    67    35    36 ar  
    68    36    37 ar  
    69    36    67 1   
    70    37    65 1   
@<TRIPOS>SUBSTRUCTURE
     1 3ZD         1 TEMP              0 ****  ****    0 ROOT
