@<TRIPOS>MOLECULE
3ZD
   68    70     1     0     0
SMALL
bcc


@<TRIPOS>ATOM
      1 C1           7.3430     0.8860     0.3490 ca         1 3ZD      -0.128000
      2 C2           5.9680     0.9730     0.1610 ca         1 3ZD      -0.097300
      3 C3           5.3290     2.3290    -0.0180 c3         1 3ZD       0.144300
      4 N1           4.1480     2.3200    -0.8440 ns         1 3ZD      -0.562900
      5 C4           5.2210    -0.2010     0.1810 ca         1 3ZD      -0.128000
      6 C5           5.8340    -1.4270     0.3850 ca         1 3ZD      -0.094000
      7 C6           7.2100    -1.5120     0.5880 ca         1 3ZD      -0.140900
      8 C7           7.8430    -2.8430     0.7960 ce         1 3ZD       0.659800
      9 N2           7.2640    -3.8780     0.3210 n2         1 3ZD      -0.824100
     10 C8           7.9580    -0.3380     0.5650 ca         1 3ZD      -0.094000
     11 N3           9.0440    -2.8200     1.4460 nv         1 3ZD      -0.968800
     12 C9           2.8990     2.3990    -0.3670 c          1 3ZD       0.659100
     13 C10          1.8180     2.4930    -1.4410 c3         1 3ZD       0.033700
     14 C11          1.7860     3.9090    -2.0190 c3         1 3ZD      -0.109100
     15 N4           0.5620     2.1210    -0.8360 ns         1 3ZD      -0.560900
     16 O1           2.6230     2.4360     0.8230 o          1 3ZD      -0.608100
     17 C14         -0.5050     1.7270    -1.5390 c          1 3ZD       0.654100
     18 C15         -1.7560     1.4710    -0.6930 c3         1 3ZD       0.163500
     19 C16         -2.3710     2.7970    -0.2080 c3         1 3ZD      -0.032100
     20 N5          -2.7310     0.7160    -1.4400 n7         1 3ZD      -0.864100
     21 O2          -0.5160     1.6040    -2.7530 o          1 3ZD      -0.602100
     22 S1          -2.9700    -0.8880    -1.2010 s6         1 3ZD       1.233900
     23 C17         -4.2680    -0.9320     0.0420 c3         1 3ZD      -0.141300
     24 O4          -3.5010    -1.4270    -2.4450 o          1 3ZD      -0.605800
     25 O5          -1.7810    -1.4910    -0.6130 o          1 3ZD      -0.605800
     26 C18         -5.1840    -5.0030     1.0020 ca         1 3ZD      -0.118000
     27 C19         -4.2160    -4.3180     1.7260 ca         1 3ZD      -0.128000
     28 C20         -3.9210    -2.9980     1.4160 ca         1 3ZD      -0.103500
     29 C21         -4.5970    -2.3490     0.3860 ca         1 3ZD      -0.081300
     30 C22         -5.5630    -3.0420    -0.3380 ca         1 3ZD      -0.103500
     31 C23         -5.8580    -4.3620    -0.0290 ca         1 3ZD      -0.128000
     32 C24         -5.7180     1.8800     2.3250 ca         1 3ZD      -0.123000
     33 C25         -4.4240     1.8340     2.8280 ca         1 3ZD      -0.127500
     34 C26         -3.3490     2.1610     2.0130 ca         1 3ZD      -0.126000
     35 C27         -3.5490     2.5330     0.6850 ca         1 3ZD      -0.086300
     36 C28         -4.8490     2.5810     0.1920 ca         1 3ZD      -0.126000
     37 C29         -5.9280     2.2600     1.0060 ca         1 3ZD      -0.127500
     38 H1           7.9490     1.7840     0.3190 ha         1 3ZD       0.135000
     39 H8           9.0340    -0.3660     0.6850 ha         1 3ZD       0.147500
     40 H31C         5.0610     2.7370     0.9580 h1         1 3ZD       0.066200
     41 H32C         6.0540     3.0180    -0.4540 h1         1 3ZD       0.066200
     42 H4           4.1490    -0.1700     0.0340 ha         1 3ZD       0.135000
     43 HA           4.2820     2.2490    -1.8410 hn         1 3ZD       0.321500
     44 H5           5.2380    -2.3290     0.3940 ha         1 3ZD       0.147500
     45 H2           7.7770    -4.7250     0.5530 hn         1 3ZD       0.371400
     46 H31N         9.2180    -2.0830     2.1090 hn         1 3ZD       0.406300
     47 H32N         9.4450    -3.7060     1.7100 hn         1 3ZD       0.406300
     48 H10          2.0470     1.7840    -2.2410 h1         1 3ZD       0.084700
     49 H111         1.0000     3.9930    -2.7680 hc         1 3ZD       0.051033
     50 H112         1.5960     4.6430    -1.2350 hc         1 3ZD       0.051033
     51 H113         2.7320     4.1560    -2.5000 hc         1 3ZD       0.051033
     52 HB           0.5050     2.1960     0.1700 hn         1 3ZD       0.342500
     53 H15         -1.4630     0.8920     0.1870 h1         1 3ZD       0.083700
     54 H161        -1.6120     3.3700     0.3260 hc         1 3ZD       0.060700
     55 H162        -2.6700     3.3920    -1.0740 hc         1 3ZD       0.060700
     56 HC          -2.9140     1.0210    -2.3890 hn         1 3ZD       0.463800
     57 H171        -3.9000    -0.3680     0.9010 h1         1 3ZD       0.103200
     58 H172        -5.1160    -0.3910    -0.3780 h1         1 3ZD       0.103200
     59 H19         -3.6910    -4.8130     2.5320 ha         1 3ZD       0.133000
     60 H23         -6.6150    -4.8910    -0.5930 ha         1 3ZD       0.133000
     61 H20         -3.1700    -2.4660     1.9860 ha         1 3ZD       0.137000
     62 H22         -6.0950    -2.5440    -1.1390 ha         1 3ZD       0.137000
     63 H24         -6.5580     1.6270     2.9580 ha         1 3ZD       0.135000
     64 H25         -4.2510     1.5460     3.8570 ha         1 3ZD       0.134500
     65 H29         -6.9330     2.3030     0.6070 ha         1 3ZD       0.134500
     66 H26         -2.3420     2.1210     2.4140 ha         1 3ZD       0.131500
     67 H28         -5.0200     2.8660    -0.8390 ha         1 3ZD       0.131500
     68 H18         -5.4160    -6.0320     1.2440 ha         1 3ZD       0.131000
@<TRIPOS>BOND
     1     1     2 ar  
     2     1    10 ar  
     3     1    38 1   
     4     2     3 1   
     5     2     5 ar  
     6     3     4 1   
     7     3    40 1   
     8     3    41 1   
     9     4    12 1   
    10     4    43 1   
    11     5     6 ar  
    12     5    42 1   
    13     6     7 ar  
    14     6    44 1   
    15     7     8 1   
    16     7    10 ar  
    17     8     9 2   
    18     8    11 1   
    19     9    45 1   
    20    10    39 1   
    21    11    46 1   
    22    11    47 1   
    23    12    13 1   
    24    12    16 2   
    25    13    14 1   
    26    13    15 1   
    27    13    48 1   
    28    14    49 1   
    29    14    50 1   
    30    14    51 1   
    31    15    17 1   
    32    15    52 1   
    33    17    18 1   
    34    17    21 2   
    35    18    19 1   
    36    18    20 1   
    37    18    53 1   
    38    19    35 1   
    39    19    54 1   
    40    19    55 1   
    41    20    22 1   
    42    20    56 1   
    43    22    23 1   
    44    22    24 2   
    45    22    25 2   
    46    23    29 1   
    47    23    57 1   
    48    23    58 1   
    49    26    27 ar  
    50    26    31 ar  
    51    26    68 1   
    52    27    28 ar  
    53    27    59 1   
    54    28    29 ar  
    55    28    61 1   
    56    29    30 ar  
    57    30    31 ar  
    58    30    62 1   
    59    31    60 1   
    60    32    33 ar  
    61    32    37 ar  
    62    32    63 1   
    63    33    34 ar  
    64    33    64 1   
    65    34    35 ar  
    66    34    66 1   
    67    35    36 ar  
    68    36    37 ar  
    69    36    67 1   
    70    37    65 1   
@<TRIPOS>SUBSTRUCTURE
     1 3ZD         1 TEMP              0 ****  ****    0 ROOT
