@<TRIPOS>MOLECULE
3ZE
   37    39     1     0     0
SMALL
bcc


@<TRIPOS>ATOM
      1 C4           2.9780     0.0760     0.0020 cc         1 3ZE       0.084800
      2 C5           3.6390    -1.0390    -0.4800 cd         1 3ZE       0.158800
      3 C6           5.0570    -1.0920    -0.3720 c          1 3ZE       0.664000
      4 C8           1.5840    -1.3840    -0.8350 cc         1 3ZE       0.467400
      5 N1           5.5500     0.0700     0.2370 ns         1 3ZE      -0.527400
      6 N3           3.5010     1.1690     0.5760 nc         1 3ZE      -0.669100
      7 OAF         -5.5880    -1.0930     1.4740 o          1 3ZE      -0.891833
      8 PAX         -4.3150    -1.1040     0.6350 p5         1 3ZE       1.161700
      9 OAG         -3.0610    -1.4430     1.4870 o          1 3ZE      -0.891833
     10 OAD         -4.3830    -1.8890    -0.6660 o          1 3ZE      -0.891833
     11 CAI         -4.1000     0.7020     0.1170 c3         1 3ZE      -0.315600
     12 CAO         -2.9060     0.8840    -0.7560 c          1 3ZE       0.716100
     13 OAB         -2.9700     0.7830    -1.9800 o          1 3ZE      -0.662100
     14 NAV         -1.7130     1.1210    -0.1630 n          1 3ZE      -0.486800
     15 CAK         -0.4810     0.9470    -0.9190 c5         1 3ZE       0.097000
     16 CAJ         -1.4320     1.1310     1.2660 c5         1 3ZE       0.063000
     17 CAT         -0.2350     0.1960     1.3680 c5         1 3ZE       0.175100
     18 OAE         -0.5780    -1.1370     1.1810 oh         1 3ZE      -0.712800
     19 CAU          0.5770     0.7120     0.1710 c5         1 3ZE      -0.015000
     20 N9           1.6590    -0.1520    -0.2350 na         1 3ZE      -0.134900
     21 C2           4.8050     1.1260     0.6770 cd         1 3ZE       0.689800
     22 O6           5.8210    -1.9760    -0.7260 o          1 3ZE      -0.638500
     23 N7           2.7460    -1.9390    -1.0020 nd         1 3ZE      -0.649000
     24 H1           0.6410    -1.8130    -1.1290 h5         1 3ZE       0.099100
     25 H2           6.5540     0.1040     0.3670 hn         1 3ZE       0.300500
     26 H3           4.9490     2.9790     1.4490 hn         1 3ZE       0.428300
     27 H4           6.4580     2.2440     1.1400 hn         1 3ZE       0.428300
     28 H7          -4.9860     0.9820    -0.4550 hc         1 3ZE       0.044200
     29 H8          -4.0760     1.3350     1.0060 hc         1 3ZE       0.044200
     30 H9          -0.5700     0.0960    -1.5970 h1         1 3ZE       0.042200
     31 H10         -0.2360     1.8200    -1.5260 h1         1 3ZE       0.042200
     32 H11         -1.1610     2.1380     1.6010 h1         1 3ZE       0.056200
     33 H12         -2.2730     0.7880     1.8580 h1         1 3ZE       0.056200
     34 H13          0.3140     0.3530     2.3060 h1         1 3ZE       0.013700
     35 H14         -1.5900    -1.2540     1.2420 ho         1 3ZE       0.538000
     36 H15          1.0350     1.6630     0.4490 h1         1 3ZE       0.059700
     37 N2           5.4660     2.1350     1.2660 nv         1 3ZE      -0.948800
@<TRIPOS>BOND
     1     1     2 2   
     2     1     6 1   
     3     1    20 1   
     4     2     3 1   
     5     2    23 1   
     6     3     5 1   
     7     3    22 2   
     8     4    20 1   
     9     4    23 2   
    10     4    24 1   
    11     5    21 1   
    12     5    25 1   
    13     6    21 2   
    14     7     8 1   
    15     8     9 1   
    16     8    10 1   
    17     8    11 1   
    18    11    12 1   
    19    11    28 1   
    20    11    29 1   
    21    12    13 2   
    22    12    14 1   
    23    14    15 1   
    24    14    16 1   
    25    15    19 1   
    26    15    30 1   
    27    15    31 1   
    28    16    17 1   
    29    16    32 1   
    30    16    33 1   
    31    17    18 1   
    32    17    19 1   
    33    17    34 1   
    34    18    35 1   
    35    19    20 1   
    36    19    36 1   
    37    21    37 1   
    38    26    37 1   
    39    27    37 1   
@<TRIPOS>SUBSTRUCTURE
     1 3ZE         1 TEMP              0 ****  ****    0 ROOT
