@<TRIPOS>MOLECULE
3ZE
   37    39     1     0     0
SMALL
No Charge or Current Charge


@<TRIPOS>ATOM
      1 C4           3.0840     0.0260     0.1090 cc         1 3ZE       0.099400
      2 C5           3.8330    -1.0350    -0.3460 cd         1 3ZE       0.093500
      3 C6           5.3250    -0.9240    -0.3450 c          1 3ZE       0.521500
      4 C8           1.7580    -1.6290    -0.5200 cc         1 3ZE       0.467400
      5 N1           5.7530     0.2820     0.1310 ns         1 3ZE      -0.460400
      6 N3           3.6050     1.2180     0.5780 nc         1 3ZE      -0.669100
      7 OAF         -5.4910    -0.8630     1.4420 o          1 3ZE      -0.891833
      8 PAX         -4.5320    -0.7430     0.3080 p5         1 3ZE       1.319500
      9 OAG         -3.2610    -1.4550     0.6290 o          1 3ZE      -0.891833
     10 OAD         -5.1480    -1.2740    -0.9400 o          1 3ZE      -0.891833
     11 CAI         -4.2010     1.0180     0.0920 c3         1 3ZE      -0.473400
     12 CAO         -2.9320     1.0140    -0.7160 c          1 3ZE       0.649100
     13 OAB         -2.9850     1.0350    -1.9390 o          1 3ZE      -0.662100
     14 NAV         -1.6840     0.9960    -0.0580 n          1 3ZE      -0.419800
     15 CAK         -0.4330     0.7090    -0.7940 c5         1 3ZE       0.097000
     16 CAJ         -1.4930     0.9010     1.4130 c5         1 3ZE       0.063000
     17 CAT         -0.3300    -0.1220     1.4780 c5         1 3ZE       0.198300
     18 OAE         -0.7820    -1.4630     1.2140 oh         1 3ZE      -0.775000
     19 CAU          0.5890     0.4660     0.3580 c5         1 3ZE       0.014300
     20 N9           1.7640    -0.3430    -0.0030 na         1 3ZE      -0.113500
     21 C2           4.9160     1.2530     0.5530 cd         1 3ZE       0.689800
     22 O6           6.1090    -1.7880    -0.7170 o          1 3ZE      -0.563000
     23 N7           2.9970    -2.0730    -0.7430 nd         1 3ZE      -0.649000
     24 H1           0.8400    -2.1700    -0.7180 h5         1 3ZE       0.099100
     25 H2           6.7490     0.4210     0.1760 hn         1 3ZE       0.300500
     26 H3           4.8150     3.1390     1.0950 hn         1 3ZE       0.483500
     27 H4           6.3760     2.6240     0.6070 hn         1 3ZE       0.483500
     28 H7          -5.0380     1.4620    -0.4560 hc         1 3ZE       0.044200
     29 H8          -4.0860     1.4470     1.0900 hc         1 3ZE       0.044200
     30 H9          -0.5550    -0.1830    -1.4220 h1         1 3ZE       0.042200
     31 H10         -0.1310     1.5470    -1.4370 h1         1 3ZE       0.042200
     32 H11         -1.1980     1.8730     1.8310 h1         1 3ZE       0.056200
     33 H12         -2.3650     0.5430     1.9700 h1         1 3ZE       0.056200
     34 H13          0.1690    -0.0880     2.4560 h1         1 3ZE       0.013700
     35 H14         -1.7760    -1.4030     0.9720 ho         1 3ZE       0.577000
     36 H15          0.9480     1.4450     0.7010 h1         1 3ZE       0.059700
     37 N2           5.4700     2.3750     0.9830 nv         1 3ZE      -1.059200
@<TRIPOS>BOND
     1     1     2 2   
     2     1     6 1   
     3     1    20 1   
     4     2     3 1   
     5     2    23 1   
     6     3     5 1   
     7     3    22 2   
     8     4    20 1   
     9     4    23 2   
    10     4    24 1   
    11     5    21 1   
    12     5    25 1   
    13     6    21 2   
    14     7     8 1   
    15     8     9 1   
    16     8    10 1   
    17     8    11 1   
    18    11    12 1   
    19    11    28 1   
    20    11    29 1   
    21    12    13 2   
    22    12    14 1   
    23    14    15 1   
    24    14    16 1   
    25    15    19 1   
    26    15    30 1   
    27    15    31 1   
    28    16    17 1   
    29    16    32 1   
    30    16    33 1   
    31    17    18 1   
    32    17    19 1   
    33    17    34 1   
    34    18    35 1   
    35    19    20 1   
    36    19    36 1   
    37    21    37 1   
    38    26    37 1   
    39    27    37 1   
@<TRIPOS>SUBSTRUCTURE
     1 3ZE         1 TEMP              0 ****  ****    0 ROOT
