@<TRIPOS>MOLECULE
3ZF
   36    38     1     0     0
SMALL
abcg2


@<TRIPOS>ATOM
      1 N1          -5.2410     1.1710    -0.1960 ns         1 3ZF      -0.462400
      2 C2          -4.0900     1.9000    -0.0940 cc         1 3ZF       0.708800
      3 N2          -4.2120     3.2360    -0.1240 nv         1 3ZF      -1.051200
      4 N3          -2.9110     1.3530     0.0630 nd         1 3ZF      -0.660100
      5 C4          -2.9520     0.0140     0.1140 cd         1 3ZF       0.136400
      6 C5          -4.0570    -0.8140     0.0200 cc         1 3ZF       0.075500
      7 C6          -5.3420    -0.2250    -0.1510 c          1 3ZF       0.524500
      8 O6          -6.4280    -0.7720    -0.2530 o          1 3ZF      -0.558000
      9 N7          -3.6840    -2.1290     0.1150 nc         1 3ZF      -0.634000
     10 C8          -2.3950    -2.0930     0.2630 cd         1 3ZF       0.407400
     11 N9          -1.8890    -0.8170     0.2710 na         1 3ZF      -0.135500
     12 OAB          2.7840    -1.1710    -1.9860 o          1 3ZF      -0.676100
     13 OAD          6.0290     0.7160     0.9330 o          1 3ZF      -0.920500
     14 OAE          3.6450     1.6470     0.6810 o          1 3ZF      -0.920500
     15 OAF          5.0850     1.2250    -1.4000 o          1 3ZF      -0.920500
     16 CAH          0.1480    -0.9380     1.7120 c5         1 3ZF      -0.103400
     17 CAI          1.6300    -0.7750     1.4130 c5         1 3ZF       0.107000
     18 CAJ          4.1440    -0.9410    -0.0360 c3         1 3ZF      -0.447400
     19 CAK          0.4130    -0.9460    -0.6740 c5         1 3ZF       0.109000
     20 CAT         -0.5060    -0.4260     0.4330 c5         1 3ZF       0.042300
     21 NAU          1.7120    -0.9700    -0.0330 n          1 3ZF      -0.428800
     22 PAW          4.7860     0.8450     0.0490 p5         1 3ZF       1.291500
     23 HN2         -5.0550     3.6680    -0.4610 hn         1 3ZF       0.493500
     24 HN2A        -3.3680     3.7730    -0.2280 hn         1 3ZF       0.493500
     25 HN1         -6.1130     1.6700    -0.3170 hn         1 3ZF       0.305500
     26 H8          -1.7560    -2.9570     0.3700 h5         1 3ZF       0.065100
     27 HAH         -0.0940    -1.9920     1.8650 hc         1 3ZF       0.033200
     28 HAHA        -0.1690    -0.3870     2.5960 hc         1 3ZF       0.033200
     29 HAI          2.0060     0.2140     1.6760 h1         1 3ZF       0.083700
     30 HAIA         2.2230    -1.5160     1.9510 h1         1 3ZF       0.083700
     31 HAJ          4.0740    -1.3270     0.9810 hc         1 3ZF       0.037700
     32 HAJA         4.8850    -1.5420    -0.5670 hc         1 3ZF       0.037700
     33 HAK          0.1060    -1.9450    -1.0040 h1         1 3ZF       0.039200
     34 HAKA         0.4040    -0.2950    -1.5490 h1         1 3ZF       0.039200
     35 HAT         -0.4930     0.6650     0.4290 h1         1 3ZF       0.112700
     36 CAO          2.8490    -1.0430    -0.7630 c          1 3ZF       0.662100
@<TRIPOS>BOND
     1     1     2 1   
     2     1     7 1   
     3     1    25 1   
     4     2     3 1   
     5     2     4 2   
     6     3    23 1   
     7     3    24 1   
     8     4     5 1   
     9     5     6 2   
    10     5    11 1   
    11     6     7 1   
    12     6     9 1   
    13     7     8 2   
    14     9    10 2   
    15    10    11 1   
    16    10    26 1   
    17    11    20 1   
    18    12    36 2   
    19    13    22 1   
    20    14    22 1   
    21    15    22 1   
    22    16    17 1   
    23    16    20 1   
    24    16    27 1   
    25    16    28 1   
    26    17    21 1   
    27    17    29 1   
    28    17    30 1   
    29    18    22 1   
    30    18    31 1   
    31    18    32 1   
    32    18    36 1   
    33    19    20 1   
    34    19    21 1   
    35    19    33 1   
    36    19    34 1   
    37    20    35 1   
    38    21    36 1   
@<TRIPOS>SUBSTRUCTURE
     1 3ZF         1 TEMP              0 ****  ****    0 ROOT
