@<TRIPOS>MOLECULE
3ZF
   36    38     1     0     0
SMALL
No Charge or Current Charge


@<TRIPOS>ATOM
      1 N1          -5.3490     1.2630    -0.1870 ns         1 3ZF      -0.462400
      2 C2          -4.1840     1.9340    -0.0370 cc         1 3ZF       0.708800
      3 N2          -4.2740     3.2510    -0.0690 nv         1 3ZF      -1.051200
      4 N3          -2.9840     1.4240     0.1310 nd         1 3ZF      -0.660100
      5 C4          -2.9900     0.0270     0.1450 cd         1 3ZF       0.136400
      6 C5          -4.1180    -0.7360    -0.0010 cc         1 3ZF       0.075500
      7 C6          -5.4430    -0.0930    -0.1840 c          1 3ZF       0.524500
      8 O6          -6.5160    -0.6670    -0.3190 o          1 3ZF      -0.558000
      9 N7          -3.8100    -2.0770     0.0530 nc         1 3ZF      -0.634000
     10 C8          -2.4880    -2.1250     0.2320 cd         1 3ZF       0.407400
     11 N9          -1.9350    -0.8450     0.2960 na         1 3ZF      -0.135500
     12 OAB          2.9280    -1.0880    -1.9400 o          1 3ZF      -0.676100
     13 OAD          5.8850     0.9900     0.9150 o          1 3ZF      -0.920500
     14 OAE          3.6830     1.7140     0.1610 o          1 3ZF      -0.920500
     15 OAF          5.3900     1.0440    -1.4690 o          1 3ZF      -0.920500
     16 CAH          0.1540    -1.1250     1.7280 c5         1 3ZF      -0.103400
     17 CAI          1.6500    -0.7970     1.4810 c5         1 3ZF       0.107000
     18 CAJ          4.2790    -0.9160     0.0060 c3         1 3ZF      -0.447400
     19 CAK          0.4260    -0.9960    -0.6480 c5         1 3ZF       0.109000
     20 CAT         -0.5210    -0.5000     0.4790 c5         1 3ZF       0.042300
     21 NAU          1.7490    -0.9490     0.0110 n          1 3ZF      -0.428800
     22 PAW          4.8240     0.7990    -0.1130 p5         1 3ZF       1.291500
     23 HN2         -5.0220     3.6430    -0.6270 hn         1 3ZF       0.493500
     24 HN2A        -3.3810     3.7240    -0.1470 hn         1 3ZF       0.493500
     25 HN1         -6.2070     1.7800    -0.2840 hn         1 3ZF       0.305500
     26 H8          -1.8800    -3.0180     0.3190 h5         1 3ZF       0.065100
     27 HAH         -0.0050    -2.2090     1.7730 hc         1 3ZF       0.033200
     28 HAHA        -0.2160    -0.6990     2.6670 hc         1 3ZF       0.033200
     29 HAI          1.8980     0.2290     1.7870 h1         1 3ZF       0.083700
     30 HAIA         2.2990    -1.4930     2.0300 h1         1 3ZF       0.083700
     31 HAJ          4.2090    -1.1440     1.0710 hc         1 3ZF       0.037700
     32 HAJA         5.0300    -1.5360    -0.4920 hc         1 3ZF       0.037700
     33 HAK          0.1910    -2.0230    -0.9580 h1         1 3ZF       0.039200
     34 HAKA         0.3760    -0.3450    -1.5310 h1         1 3ZF       0.039200
     35 HAT         -0.4370     0.5940     0.5440 h1         1 3ZF       0.112700
     36 CAO          2.9560    -0.9600    -0.7220 c          1 3ZF       0.662100
@<TRIPOS>BOND
     1     1     2 1   
     2     1     7 1   
     3     1    25 1   
     4     2     3 1   
     5     2     4 2   
     6     3    23 1   
     7     3    24 1   
     8     4     5 1   
     9     5     6 2   
    10     5    11 1   
    11     6     7 1   
    12     6     9 1   
    13     7     8 2   
    14     9    10 2   
    15    10    11 1   
    16    10    26 1   
    17    11    20 1   
    18    12    36 2   
    19    13    22 1   
    20    14    22 1   
    21    15    22 1   
    22    16    17 1   
    23    16    20 1   
    24    16    27 1   
    25    16    28 1   
    26    17    21 1   
    27    17    29 1   
    28    17    30 1   
    29    18    22 1   
    30    18    31 1   
    31    18    32 1   
    32    18    36 1   
    33    19    20 1   
    34    19    21 1   
    35    19    33 1   
    36    19    34 1   
    37    20    35 1   
    38    21    36 1   
@<TRIPOS>SUBSTRUCTURE
     1 3ZF         1 TEMP              0 ****  ****    0 ROOT
