@<TRIPOS>MOLECULE
3ZG
   40    42     1     0     0
SMALL
bcc


@<TRIPOS>ATOM
      1 C4          -2.9570    -1.8630     0.0380 ca         1 3ZG      -0.182000
      2 C5          -4.3170    -1.8030     0.0580 ca         1 3ZG      -0.069000
      3 C6          -4.9760    -0.5530     0.0370 ca         1 3ZG      -0.195300
      4 C7          -6.3800    -0.4270     0.0570 ca         1 3ZG       0.435200
      5 C8          -6.2650     1.8430    -0.0070 ca         1 3ZG       0.392200
      6 N2          -7.0120     0.7170     0.0370 nb         1 3ZG      -0.672000
      7 C9          -4.8990     1.8520    -0.0280 ca         1 3ZG      -0.235300
      8 C10         -4.1960     0.6250    -0.0040 ca         1 3ZG       0.021000
      9 C11         -2.7880     0.5510    -0.0230 ca         1 3ZG      -0.168000
     10 C12          6.2880    -0.7040    -0.1130 c5         1 3ZG       0.098500
     11 N3           5.0290     0.0370    -0.1080 n          1 3ZG      -0.476800
     12 C13          7.3210     0.3580     0.2450 c5         1 3ZG      -0.094400
     13 C14          6.7200     1.6390    -0.3250 c5         1 3ZG      -0.094400
     14 C15          5.2320     1.4820    -0.0360 c5         1 3ZG       0.098500
     15 O1           0.0200     1.2550    -0.0440 o          1 3ZG      -0.629100
     16 C2           0.2140     0.0490    -0.0400 c          1 3ZG       0.801100
     17 N            1.4470    -0.4950    -0.0560 ns         1 3ZG      -0.587900
     18 C1           2.6260     0.3190    -0.0970 c3         1 3ZG       0.039000
     19 C            3.8490    -0.5830    -0.1410 c          1 3ZG       0.659100
     20 O            3.7380    -1.8040    -0.2020 o          1 3ZG      -0.622100
     21 C3          -2.1650    -0.6790    -0.0010 ca         1 3ZG       0.108600
     22 H1          -2.4620    -2.8270     0.0540 ha         1 3ZG       0.129000
     23 H2          -4.8990    -2.7160     0.0910 ha         1 3ZG       0.135000
     24 H3          -0.5160    -1.8570    -0.0070 hn         1 3ZG       0.316500
     25 H4          -6.9870    -1.3280     0.0910 h4         1 3ZG       0.015100
     26 H5          -6.8160     2.7760    -0.0260 h4         1 3ZG       0.017100
     27 H6          -4.3590     2.7900    -0.0640 ha         1 3ZG       0.144000
     28 H7          -2.2180     1.4660    -0.0540 ha         1 3ZG       0.173000
     29 H9           6.4760    -1.1270    -1.1030 h1         1 3ZG       0.055200
     30 H10          7.4200     0.4370     1.3290 hc         1 3ZG       0.057700
     31 H11          8.3040     0.1250    -0.1620 hc         1 3ZG       0.057700
     32 H12          7.1280     2.5450     0.1210 hc         1 3ZG       0.057700
     33 H13          6.8870     1.6910    -1.4030 hc         1 3ZG       0.057700
     34 H14          4.6130     2.0110    -0.7620 h1         1 3ZG       0.055200
     35 H15          4.9800     1.8600     0.9600 h1         1 3ZG       0.055200
     36 H16          1.5910    -1.4940    -0.0820 hn         1 3ZG       0.343500
     37 H17          2.6310     0.9710    -0.9770 h1         1 3ZG       0.067700
     38 H18          2.6890     0.9770     0.7770 h1         1 3ZG       0.067700
     39 N1          -0.7960    -0.8880    -0.0160 ns         1 3ZG      -0.487100
     40 H8           6.2600    -1.5260     0.6030 h1         1 3ZG       0.055200
@<TRIPOS>BOND
     1     1     2 ar  
     2     1    21 ar  
     3     1    22 1   
     4     2     3 ar  
     5     2    23 1   
     6     3     4 ar  
     7     3     8 ar  
     8     4     6 ar  
     9     4    25 1   
    10     5     6 ar  
    11     5     7 ar  
    12     5    26 1   
    13     7     8 ar  
    14     7    27 1   
    15     8     9 ar  
    16     9    21 ar  
    17     9    28 1   
    18    10    11 1   
    19    10    12 1   
    20    10    29 1   
    21    10    40 1   
    22    11    14 1   
    23    11    19 1   
    24    12    13 1   
    25    12    30 1   
    26    12    31 1   
    27    13    14 1   
    28    13    32 1   
    29    13    33 1   
    30    14    34 1   
    31    14    35 1   
    32    15    16 2   
    33    16    17 1   
    34    16    39 1   
    35    17    18 1   
    36    17    36 1   
    37    18    19 1   
    38    18    37 1   
    39    18    38 1   
    40    19    20 2   
    41    21    39 1   
    42    24    39 1   
@<TRIPOS>SUBSTRUCTURE
     1 3ZG         1 TEMP              0 ****  ****    0 ROOT
