@<TRIPOS>MOLECULE
3ZG
   40    42     1     0     0
SMALL
No Charge or Current Charge


@<TRIPOS>ATOM
      1 C4          -3.0290    -1.8570    -0.0130 ca         1 3ZG      -0.164000
      2 C5          -4.4340    -1.8230     0.0080 ca         1 3ZG      -0.051000
      3 C6          -5.1020    -0.5870     0.0230 ca         1 3ZG      -0.130000
      4 C7          -6.5090    -0.5150     0.0440 ca         1 3ZG       0.369900
      5 C8          -6.4670     1.8030     0.0520 ca         1 3ZG       0.326900
      6 N2          -7.1890     0.6580     0.0580 nb         1 3ZG      -0.672000
      7 C9          -5.0630     1.8250     0.0310 ca         1 3ZG      -0.152000
      8 C10         -4.3610     0.6080     0.0160 ca         1 3ZG       0.021000
      9 C11         -2.9550     0.5730    -0.0050 ca         1 3ZG      -0.150000
     10 C12          6.4490    -0.7450    -0.0790 c5         1 3ZG       0.098500
     11 N3           5.1920     0.0330    -0.0900 n          1 3ZG      -0.409800
     12 C13          7.4830     0.3410     0.3150 c5         1 3ZG      -0.094400
     13 C14          6.9230     1.5870    -0.4140 c5         1 3ZG      -0.094400
     14 C15          5.4110     1.4970    -0.0810 c5         1 3ZG       0.098500
     15 O1          -0.0010     1.3680    -0.0470 o          1 3ZG      -0.629100
     16 C2           0.1550     0.1560    -0.0530 c          1 3ZG       0.667100
     17 N            1.4050    -0.4130    -0.0740 ns         1 3ZG      -0.520900
     18 C1           2.6730     0.3520    -0.0910 c3         1 3ZG       0.039000
     19 C            3.9200    -0.5730    -0.1030 c          1 3ZG       0.592100
     20 O            3.8140    -1.7970    -0.1200 o          1 3ZG      -0.622100
     21 C3          -2.2760    -0.6660    -0.0200 ca         1 3ZG       0.016000
     22 H1          -2.5220    -2.8190    -0.0240 ha         1 3ZG       0.111000
     23 H2          -4.9980    -2.7540     0.0130 ha         1 3ZG       0.117000
     24 H3          -0.5370    -1.7450    -0.0490 hn         1 3ZG       0.150000
     25 H4          -7.1140    -1.4210     0.0500 h4         1 3ZG       0.015100
     26 H5          -7.0350     2.7330     0.0640 h4         1 3ZG       0.017100
     27 H6          -4.5370     2.7750     0.0270 ha         1 3ZG       0.126000
     28 H7          -2.4130     1.5130    -0.0090 ha         1 3ZG       0.155000
     29 H9           6.6560    -1.1580    -1.0750 h1         1 3ZG       0.055200
     30 H10          7.5010     0.4930     1.4010 hc         1 3ZG       0.057700
     31 H11          8.5010     0.0840     0.0010 hc         1 3ZG       0.057700
     32 H12          7.3730     2.5240    -0.0670 hc         1 3ZG       0.057700
     33 H13          7.0920     1.5210    -1.4960 hc         1 3ZG       0.057700
     34 H14          4.8010     2.0230    -0.8280 h1         1 3ZG       0.055200
     35 H15          5.1910     1.9150     0.9110 h1         1 3ZG       0.055200
     36 H16          1.4590    -1.4260    -0.0780 hn         1 3ZG       0.343500
     37 H17          2.7050     0.9860    -0.9850 h1         1 3ZG       0.067700
     38 H18          2.7270     0.9930     0.7980 h1         1 3ZG       0.067700
     39 N1          -0.8600    -0.7870    -0.0410 ns         1 3ZG      -0.161000
     40 H8           6.4260    -1.5710     0.6450 h1         1 3ZG       0.055200
@<TRIPOS>BOND
     1     1     2 ar  
     2     1    21 ar  
     3     1    22 1   
     4     2     3 ar  
     5     2    23 1   
     6     3     4 ar  
     7     3     8 ar  
     8     4     6 ar  
     9     4    25 1   
    10     5     6 ar  
    11     5     7 ar  
    12     5    26 1   
    13     7     8 ar  
    14     7    27 1   
    15     8     9 ar  
    16     9    21 ar  
    17     9    28 1   
    18    10    11 1   
    19    10    12 1   
    20    10    29 1   
    21    10    40 1   
    22    11    14 1   
    23    11    19 1   
    24    12    13 1   
    25    12    30 1   
    26    12    31 1   
    27    13    14 1   
    28    13    32 1   
    29    13    33 1   
    30    14    34 1   
    31    14    35 1   
    32    15    16 2   
    33    16    17 1   
    34    16    39 1   
    35    17    18 1   
    36    17    36 1   
    37    18    19 1   
    38    18    37 1   
    39    18    38 1   
    40    19    20 2   
    41    21    39 1   
    42    24    39 1   
@<TRIPOS>SUBSTRUCTURE
     1 3ZG         1 TEMP              0 ****  ****    0 ROOT
