@<TRIPOS>MOLECULE
3ZH
   87    88     1     0     0
SMALL
abcg2


@<TRIPOS>ATOM
      1 C8           2.1710    -6.3990     0.5310 c3         1 3ZH       0.019500
      2 C7           3.3080    -6.4750     1.5780 c          1 3ZH       0.689000
      3 C9           1.3150    -5.1530     0.8140 c3         1 3ZH      -0.002200
      4 C11         -0.8630    -4.8330    -0.4780 c2         1 3ZH      -0.156000
      5 O7           3.2720    -7.4000     2.4140 o          1 3ZH      -0.738000
      6 N5           1.3130    -7.5670     0.4320 n8         1 3ZH      -0.985200
      7 N3          -1.2450    -4.4680    -1.7880 nh         1 3ZH      -0.605400
      8 C12         -0.0670    -3.8350    -2.3700 c5         1 3ZH       0.419000
      9 N4           1.0340    -4.3020    -1.5380 nh         1 3ZH      -0.615400
     10 C10          0.4580    -4.7400    -0.3260 c2         1 3ZH       0.058800
     11 C14          2.0570    -2.0840    -0.8650 c3         1 3ZH      -0.108400
     12 C15          3.3680    -1.3090    -0.8930 c3         1 3ZH      -0.073400
     13 C16          3.2680     0.0810    -0.2750 c3         1 3ZH      -0.073400
     14 C17          4.5690     0.8660    -0.3730 c3         1 3ZH      -0.074400
     15 C18          4.4870     2.2570     0.2430 c3         1 3ZH      -0.075400
     16 C19          5.7820     3.0440     0.0990 c3         1 3ZH      -0.072400
     17 C20          5.7060     4.4360     0.7310 c3         1 3ZH      -0.035100
     18 C21          6.9890     5.2010     0.5710 ca         1 3ZH      -0.068300
     19 C26          7.1860     6.0490    -0.5170 ca         1 3ZH      -0.107500
     20 C25          8.3890     6.7220    -0.6900 ca         1 3ZH      -0.112500
     21 C24          9.4200     6.5550     0.2260 ca         1 3ZH      -0.120000
     22 C23          9.2370     5.7110     1.3140 ca         1 3ZH      -0.112500
     23 C22          8.0320     5.0420     1.4820 ca         1 3ZH      -0.107500
     24 C33         -9.9810     6.1220     1.1310 c          1 3ZH       0.717000
     25 O5         -10.7370     5.7660     0.2060 o          1 3ZH      -0.747000
     26 C34         -8.7110     5.2910     1.3850 c3         1 3ZH      -0.203400
     27 C35         -8.4960     4.1000     0.4660 c3         1 3ZH      -0.054400
     28 C36         -7.2070     3.3440     0.7650 c3         1 3ZH      -0.079400
     29 C37         -6.9800     2.1530    -0.1580 c3         1 3ZH      -0.075400
     30 C38         -5.6880     1.4010     0.1320 c3         1 3ZH      -0.075400
     31 C39         -5.4630     0.2070    -0.7880 c3         1 3ZH      -0.074400
     32 C40         -4.1690    -0.5400    -0.4960 c3         1 3ZH      -0.076400
     33 C41         -3.9500    -1.7480    -1.3990 c3         1 3ZH      -0.071400
     34 C42         -2.6500    -2.4840    -1.1020 c3         1 3ZH      -0.113400
     35 H3           2.6480    -6.2600    -0.4450 h1         1 3ZH       0.051700
     36 H15          0.6750    -5.3460     1.6810 hc         1 3ZH       0.051200
     37 H16          1.9780    -4.3320     1.0960 hc         1 3ZH       0.051200
     38 H17         -1.5830    -5.2570     0.2070 h4         1 3ZH       0.209000
     39 H41          1.8890    -8.3700     0.2080 hn         1 3ZH       0.377000
     40 H71         -2.5960    -3.4930    -3.0110 h1         1 3ZH       0.040700
     41 H70         -3.3150    -4.4290    -1.7260 h1         1 3ZH       0.040700
     42 H18          0.0720    -4.1230    -3.4180 h2         1 3ZH       0.019700
     43 H19         -0.1500    -2.7330    -2.3510 h2         1 3ZH       0.019700
     44 H20          3.0030    -4.0090    -0.9700 h1         1 3ZH       0.062200
     45 H21          2.5740    -3.3500    -2.5290 h1         1 3ZH       0.062200
     46 H22          1.2880    -1.5060    -1.3870 hc         1 3ZH       0.040200
     47 H23          1.7110    -2.1930     0.1680 hc         1 3ZH       0.040200
     48 H25          4.1420    -1.8820    -0.3700 hc         1 3ZH       0.041200
     49 H24          3.7090    -1.2160    -1.9300 hc         1 3ZH       0.041200
     50 H26          2.4680     0.6410    -0.7710 hc         1 3ZH       0.037200
     51 H27          2.9710    -0.0070     0.7760 hc         1 3ZH       0.037200
     52 H28          5.3730     0.3020     0.1130 hc         1 3ZH       0.036700
     53 H29          4.8570     0.9540    -1.4270 hc         1 3ZH       0.036700
     54 H30          3.6690     2.8140    -0.2260 hc         1 3ZH       0.037700
     55 H31          4.2280     2.1720     1.3040 hc         1 3ZH       0.037700
     56 H33          6.6050     2.4870     0.5590 hc         1 3ZH       0.040200
     57 H32          6.0360     3.1430    -0.9610 hc         1 3ZH       0.040200
     58 H34          4.8830     4.9930     0.2740 hc         1 3ZH       0.047700
     59 H35          5.4620     4.3340     1.7920 hc         1 3ZH       0.047700
     60 H40          6.3880     6.1880    -1.2370 ha         1 3ZH       0.112000
     61 H39          8.5200     7.3790    -1.5410 ha         1 3ZH       0.106500
     62 H38         10.3570     7.0810     0.0940 ha         1 3ZH       0.104000
     63 H37         10.0340     5.5740     2.0340 ha         1 3ZH       0.106500
     64 H36          7.8980     4.3860     2.3360 ha         1 3ZH       0.112000
     65 H52         -7.8470     5.9630     1.3230 hc         1 3ZH       0.014700
     66 H53         -8.7270     4.9510     2.4280 hc         1 3ZH       0.014700
     67 H55         -9.3440     3.4140     0.5450 hc         1 3ZH       0.037200
     68 H54         -8.4800     4.4370    -0.5750 hc         1 3ZH       0.037200
     69 H57         -6.3550     4.0280     0.6860 hc         1 3ZH       0.023700
     70 H56         -7.2180     2.9970     1.8050 hc         1 3ZH       0.023700
     71 H59         -7.8280     1.4640    -0.0750 hc         1 3ZH       0.032200
     72 H58         -6.9730     2.4980    -1.1980 hc         1 3ZH       0.032200
     73 H61         -4.8400     2.0890     0.0450 hc         1 3ZH       0.032700
     74 H60         -5.6930     1.0580     1.1730 hc         1 3ZH       0.032700
     75 H62         -6.3100    -0.4830    -0.6990 hc         1 3ZH       0.032200
     76 H63         -5.4600     0.5470    -1.8300 hc         1 3ZH       0.032200
     77 H64         -3.3210     0.1470    -0.5970 hc         1 3ZH       0.036700
     78 H65         -4.1680    -0.8690     0.5490 hc         1 3ZH       0.036700
     79 H66         -4.7950    -2.4370    -1.2900 hc         1 3ZH       0.031200
     80 H67         -3.9560    -1.4250    -2.4460 hc         1 3ZH       0.031200
     81 H68         -2.6210    -2.7620    -0.0430 hc         1 3ZH       0.044700
     82 H69         -1.8040    -1.8070    -1.2580 hc         1 3ZH       0.044700
     83 OXT          4.1700    -5.5730     1.5040 o          1 3ZH      -0.738000
     84 O1         -10.1530     7.1030     1.8860 o          1 3ZH      -0.747000
     85 H2           0.9530    -7.7720     1.3580 hn         1 3ZH       0.377000
     86 C43         -2.4920    -3.7440    -1.9520 c3         1 3ZH       0.180800
     87 C13          2.2160    -3.4660    -1.5020 c3         1 3ZH       0.179800
@<TRIPOS>BOND
     1     1     2 1   
     2     1     3 1   
     3     1     6 1   
     4     1    35 1   
     5     2     5 1   
     6     2    83 1   
     7     3    10 1   
     8     3    36 1   
     9     3    37 1   
    10     4     7 1   
    11     4    10 2   
    12     4    38 1   
    13     6    39 1   
    14     6    85 1   
    15     7     8 1   
    16     7    86 1   
    17     8     9 1   
    18     8    42 1   
    19     8    43 1   
    20     9    10 1   
    21     9    87 1   
    22    11    12 1   
    23    11    46 1   
    24    11    47 1   
    25    11    87 1   
    26    12    13 1   
    27    12    48 1   
    28    12    49 1   
    29    13    14 1   
    30    13    50 1   
    31    13    51 1   
    32    14    15 1   
    33    14    52 1   
    34    14    53 1   
    35    15    16 1   
    36    15    54 1   
    37    15    55 1   
    38    16    17 1   
    39    16    56 1   
    40    16    57 1   
    41    17    18 1   
    42    17    58 1   
    43    17    59 1   
    44    18    19 ar  
    45    18    23 ar  
    46    19    20 ar  
    47    19    60 1   
    48    20    21 ar  
    49    20    61 1   
    50    21    22 ar  
    51    21    62 1   
    52    22    23 ar  
    53    22    63 1   
    54    23    64 1   
    55    24    25 1   
    56    24    26 1   
    57    24    84 1   
    58    26    27 1   
    59    26    65 1   
    60    26    66 1   
    61    27    28 1   
    62    27    67 1   
    63    27    68 1   
    64    28    29 1   
    65    28    69 1   
    66    28    70 1   
    67    29    30 1   
    68    29    71 1   
    69    29    72 1   
    70    30    31 1   
    71    30    73 1   
    72    30    74 1   
    73    31    32 1   
    74    31    75 1   
    75    31    76 1   
    76    32    33 1   
    77    32    77 1   
    78    32    78 1   
    79    33    34 1   
    80    33    79 1   
    81    33    80 1   
    82    34    81 1   
    83    34    82 1   
    84    34    86 1   
    85    40    86 1   
    86    41    86 1   
    87    44    87 1   
    88    45    87 1   
@<TRIPOS>SUBSTRUCTURE
     1 3ZH         1 TEMP              0 ****  ****    0 ROOT
