@<TRIPOS>MOLECULE
3ZH
   87    88     1     0     0
SMALL
No Charge or Current Charge


@<TRIPOS>ATOM
      1 C8           2.2360    -6.4000     0.5520 c3         1 3ZH       0.019500
      2 C7           3.4240    -6.3820     1.5950 c          1 3ZH       0.689000
      3 C9           1.3260    -5.1600     0.7720 c3         1 3ZH      -0.002200
      4 C11         -0.8510    -4.9060    -0.5390 c2         1 3ZH      -0.156000
      5 O7           3.1750    -6.6330     2.7670 o          1 3ZH      -0.738000
      6 N5           1.4290    -7.6800     0.5030 n8         1 3ZH      -0.985200
      7 N3          -1.3130    -4.3990    -1.7390 nh         1 3ZH      -0.605400
      8 C12         -0.1360    -3.9270    -2.5270 c5         1 3ZH       0.419000
      9 N4           0.9790    -4.1860    -1.5670 nh         1 3ZH      -0.615400
     10 C10          0.4640    -4.7950    -0.4330 c2         1 3ZH       0.058800
     11 C14          2.1780    -2.0400    -0.9820 c3         1 3ZH      -0.108400
     12 C15          3.5160    -1.2720    -1.0560 c3         1 3ZH      -0.073400
     13 C16          3.4450     0.1260    -0.4050 c3         1 3ZH      -0.073400
     14 C17          4.7820     0.8960    -0.4790 c3         1 3ZH      -0.074400
     15 C18          4.7100     2.2950     0.1710 c3         1 3ZH      -0.075400
     16 C19          6.0470     3.0650     0.0960 c3         1 3ZH      -0.072400
     17 C20          5.9790     4.4640     0.7450 c3         1 3ZH      -0.035100
     18 C21          7.3080     5.2010     0.6570 ca         1 3ZH      -0.068300
     19 C26          7.5960     6.0190    -0.4530 ca         1 3ZH      -0.107500
     20 C25          8.8250     6.6960    -0.5370 ca         1 3ZH      -0.112500
     21 C24          9.7740     6.5590     0.4900 ca         1 3ZH      -0.120000
     22 C23          9.4950     5.7430     1.5990 ca         1 3ZH      -0.112500
     23 C22          8.2650     5.0660     1.6820 ca         1 3ZH      -0.107500
     24 C33        -10.4070     6.0040     1.0850 c          1 3ZH       0.717000
     25 O5         -11.3270     5.6480     1.8060 o          1 3ZH      -0.747000
     26 C34         -9.0110     5.4040     1.3360 c3         1 3ZH      -0.203400
     27 C35         -8.8390     4.0950     0.5280 c3         1 3ZH      -0.054400
     28 C36         -7.4570     3.4320     0.7300 c3         1 3ZH      -0.079400
     29 C37         -7.2880     2.1260    -0.0770 c3         1 3ZH      -0.075400
     30 C38         -5.9070     1.4650     0.1250 c3         1 3ZH      -0.075400
     31 C39         -5.7380     0.1590    -0.6820 c3         1 3ZH      -0.074400
     32 C40         -4.3570    -0.5020    -0.4810 c3         1 3ZH      -0.076400
     33 C41         -4.1880    -1.8070    -1.2890 c3         1 3ZH      -0.071400
     34 C42         -2.8060    -2.4670    -1.0880 c3         1 3ZH      -0.113400
     35 H3           2.7050    -6.2830    -0.4360 h1         1 3ZH       0.051700
     36 H15          0.6880    -5.3400     1.6460 hc         1 3ZH       0.051200
     37 H16          1.9550    -4.3050     1.0460 hc         1 3ZH       0.051200
     38 H17         -1.5430    -5.2980     0.2090 h4         1 3ZH       0.209000
     39 H41          2.0600    -8.4650     0.3040 hn         1 3ZH       0.377000
     40 H71         -2.8010    -3.5450    -2.9610 h1         1 3ZH       0.040700
     41 H70         -3.4150    -4.4830    -1.5940 h1         1 3ZH       0.040700
     42 H18         -0.0120    -4.5210    -3.4420 h2         1 3ZH       0.019700
     43 H19         -0.2170    -2.8580    -2.7600 h2         1 3ZH       0.019700
     44 H20          3.0530    -4.0200    -1.1720 h1         1 3ZH       0.062200
     45 H21          2.5240    -3.3030    -2.6930 h1         1 3ZH       0.062200
     46 H22          1.3970    -1.4510    -1.4780 hc         1 3ZH       0.040200
     47 H23          1.8800    -2.1430     0.0680 hc         1 3ZH       0.040200
     48 H25          4.2970    -1.8620    -0.5590 hc         1 3ZH       0.041200
     49 H24          3.8130    -1.1660    -2.1070 hc         1 3ZH       0.041200
     50 H26          2.6630     0.7150    -0.9000 hc         1 3ZH       0.037200
     51 H27          3.1480     0.0200     0.6460 hc         1 3ZH       0.037200
     52 H28          5.5640     0.3080     0.0170 hc         1 3ZH       0.036700
     53 H29          5.0780     1.0020    -1.5300 hc         1 3ZH       0.036700
     54 H30          3.9280     2.8830    -0.3250 hc         1 3ZH       0.037700
     55 H31          4.4140     2.1890     1.2220 hc         1 3ZH       0.037700
     56 H33          6.8300     2.4790     0.5920 hc         1 3ZH       0.040200
     57 H32          6.3440     3.1720    -0.9540 hc         1 3ZH       0.040200
     58 H34          5.1910     5.0500     0.2550 hc         1 3ZH       0.047700
     59 H35          5.6750     4.3600     1.7940 hc         1 3ZH       0.047700
     60 H40          6.8660     6.1290    -1.2530 ha         1 3ZH       0.112000
     61 H39          9.0410     7.3270    -1.3970 ha         1 3ZH       0.106500
     62 H38         10.7260     7.0830     0.4250 ha         1 3ZH       0.104000
     63 H37         10.2300     5.6340     2.3930 ha         1 3ZH       0.106500
     64 H36          8.0570     4.4340     2.5430 ha         1 3ZH       0.112000
     65 H52         -8.2300     6.0850     0.9750 hc         1 3ZH       0.014700
     66 H53         -8.8980     5.1230     2.3910 hc         1 3ZH       0.014700
     67 H55         -9.6230     3.3850     0.8200 hc         1 3ZH       0.037200
     68 H54         -8.9830     4.3080    -0.5390 hc         1 3ZH       0.037200
     69 H57         -6.6720     4.1400     0.4370 hc         1 3ZH       0.023700
     70 H56         -7.3130     3.2170     1.7960 hc         1 3ZH       0.023700
     71 H59         -8.0730     1.4180     0.2160 hc         1 3ZH       0.032200
     72 H58         -7.4310     2.3410    -1.1430 hc         1 3ZH       0.032200
     73 H61         -5.1220     2.1730    -0.1680 hc         1 3ZH       0.032700
     74 H60         -5.7630     1.2500     1.1910 hc         1 3ZH       0.032700
     75 H62         -6.5230    -0.5490    -0.3890 hc         1 3ZH       0.032200
     76 H63         -5.8820     0.3740    -1.7490 hc         1 3ZH       0.032200
     77 H64         -3.5720     0.2070    -0.7730 hc         1 3ZH       0.036700
     78 H65         -4.2130    -0.7170     0.5860 hc         1 3ZH       0.036700
     79 H66         -4.9710    -2.5170    -0.9950 hc         1 3ZH       0.031200
     80 H67         -4.3320    -1.5920    -2.3550 hc         1 3ZH       0.031200
     81 H68         -2.6620    -2.6840    -0.0220 hc         1 3ZH       0.044700
     82 H69         -2.0220    -1.7580    -1.3800 hc         1 3ZH       0.044700
     83 OXT          4.5630    -6.2260     1.1760 o          1 3ZH      -0.738000
     84 O1         -10.5440     6.7750     0.1470 o          1 3ZH      -0.747000
     85 H2           1.0920    -7.8850     1.4520 hn         1 3ZH       0.377000
     86 C43         -2.6370    -3.7710    -1.8990 c3         1 3ZH       0.180800
     87 C13          2.2480    -3.4380    -1.6380 c3         1 3ZH       0.179800
@<TRIPOS>BOND
     1     1     2 1   
     2     1     3 1   
     3     1     6 1   
     4     1    35 1   
     5     2     5 1   
     6     2    83 1   
     7     3    10 1   
     8     3    36 1   
     9     3    37 1   
    10     4     7 1   
    11     4    10 2   
    12     4    38 1   
    13     6    39 1   
    14     6    85 1   
    15     7     8 1   
    16     7    86 1   
    17     8     9 1   
    18     8    42 1   
    19     8    43 1   
    20     9    10 1   
    21     9    87 1   
    22    11    12 1   
    23    11    46 1   
    24    11    47 1   
    25    11    87 1   
    26    12    13 1   
    27    12    48 1   
    28    12    49 1   
    29    13    14 1   
    30    13    50 1   
    31    13    51 1   
    32    14    15 1   
    33    14    52 1   
    34    14    53 1   
    35    15    16 1   
    36    15    54 1   
    37    15    55 1   
    38    16    17 1   
    39    16    56 1   
    40    16    57 1   
    41    17    18 1   
    42    17    58 1   
    43    17    59 1   
    44    18    19 ar  
    45    18    23 ar  
    46    19    20 ar  
    47    19    60 1   
    48    20    21 ar  
    49    20    61 1   
    50    21    22 ar  
    51    21    62 1   
    52    22    23 ar  
    53    22    63 1   
    54    23    64 1   
    55    24    25 1   
    56    24    26 1   
    57    24    84 1   
    58    26    27 1   
    59    26    65 1   
    60    26    66 1   
    61    27    28 1   
    62    27    67 1   
    63    27    68 1   
    64    28    29 1   
    65    28    69 1   
    66    28    70 1   
    67    29    30 1   
    68    29    71 1   
    69    29    72 1   
    70    30    31 1   
    71    30    73 1   
    72    30    74 1   
    73    31    32 1   
    74    31    75 1   
    75    31    76 1   
    76    32    33 1   
    77    32    77 1   
    78    32    78 1   
    79    33    34 1   
    80    33    79 1   
    81    33    80 1   
    82    34    81 1   
    83    34    82 1   
    84    34    86 1   
    85    40    86 1   
    86    41    86 1   
    87    44    87 1   
    88    45    87 1   
@<TRIPOS>SUBSTRUCTURE
     1 3ZH         1 TEMP              0 ****  ****    0 ROOT
