@<TRIPOS>MOLECULE
3ZI
   38    41     1     0     0
SMALL
No Charge or Current Charge


@<TRIPOS>ATOM
      1 C10          4.8810    30.3620    -6.7230 c6         1 3ZI       0.040700
      2 C15          2.2440    30.6160   -10.3350 ca         1 3ZI      -0.088200
      3 C20          3.2450    28.6070    -9.4250 ca         1 3ZI      -0.078000
      4 C21          3.2070    30.0010    -9.5840 ca         1 3ZI      -0.074800
      5 O01          7.2590    29.9650    -6.2680 o          1 3ZI      -0.556000
      6 C07          7.0020    30.4650    -3.4500 c5         1 3ZI       0.104000
      7 C08          3.5270    31.3220    -4.7790 c          1 3ZI       0.561000
      8 C11          5.2620    30.8190    -8.1600 c3         1 3ZI      -0.001200
      9 C12          4.0740    31.0210    -9.0660 cc         1 3ZI      -0.163400
     10 C16          1.2410    29.8710   -10.9770 ca         1 3ZI       0.157000
     11 C18          1.2450    28.4690   -10.8360 ca         1 3ZI      -0.132000
     12 C19          2.2470    27.8370   -10.0610 ca         1 3ZI      -0.114000
     13 C02          6.1380    30.1820    -5.8230 c          1 3ZI       0.559000
     14 C04          4.5620    30.5570    -3.8830 c5         1 3ZI       0.024700
     15 C05          4.9140    31.3400    -2.5880 c5         1 3ZI      -0.073400
     16 C06          6.1930    30.5860    -2.1280 c5         1 3ZI      -0.099400
     17 C13          3.5780    32.2290    -9.5490 cd         1 3ZI      -0.150100
     18 F17          0.2900    30.4830   -11.7180 f          1 3ZI      -0.182000
     19 N03          5.9220    30.3780    -4.4520 n          1 3ZI      -0.409800
     20 N09          3.8720    31.2710    -6.1160 ns         1 3ZI      -0.500900
     21 N14          2.4310    31.9880   -10.3440 na         1 3ZI      -0.204700
     22 O22          2.5690    31.9780    -4.3980 o          1 3ZI      -0.551000
     23 H1           4.4210    29.3670    -6.7860 h1         1 3ZI       0.066700
     24 H3           7.6530    29.5800    -3.4580 h1         1 3ZI       0.058700
     25 H4           7.6200    31.3560    -3.6270 h1         1 3ZI       0.058700
     26 H5           5.9330    30.0820    -8.6180 hc         1 3ZI       0.072700
     27 H6           5.8360    31.7520    -8.1050 hc         1 3ZI       0.072700
     28 H7           0.4780    27.8750   -11.3250 ha         1 3ZI       0.131000
     29 H8           2.2500    26.7540    -9.9550 ha         1 3ZI       0.117000
     30 H9           4.1280    29.5760    -3.6500 h1         1 3ZI       0.071700
     31 H10          5.1260    32.3960    -2.7990 hc         1 3ZI       0.068700
     32 H11          4.1090    31.3060    -1.8440 hc         1 3ZI       0.068700
     33 H12          5.9430    29.5960    -1.7300 hc         1 3ZI       0.055700
     34 H13          6.7460    31.1210    -1.3480 hc         1 3ZI       0.055700
     35 H14          3.9520    33.2370    -9.3820 h4         1 3ZI       0.219000
     36 H15          3.2680    31.7890    -6.7440 hn         1 3ZI       0.330500
     37 H16          1.8600    32.6790   -10.8240 hn         1 3ZI       0.364000
     38 H2           4.0220    28.1300    -8.8320 ha         1 3ZI       0.120000
@<TRIPOS>BOND
     1     1     8 1   
     2     1    13 1   
     3     1    20 1   
     4     1    23 1   
     5     2     4 ar  
     6     2    10 ar  
     7     2    21 1   
     8     3     4 ar  
     9     3    12 ar  
    10     3    38 1   
    11     4     9 1   
    12     5    13 2   
    13     6    16 1   
    14     6    19 1   
    15     6    24 1   
    16     6    25 1   
    17     7    14 1   
    18     7    20 1   
    19     7    22 2   
    20     8     9 1   
    21     8    26 1   
    22     8    27 1   
    23     9    17 2   
    24    10    11 ar  
    25    10    18 1   
    26    11    12 ar  
    27    11    28 1   
    28    12    29 1   
    29    13    19 1   
    30    14    15 1   
    31    14    19 1   
    32    14    30 1   
    33    15    16 1   
    34    15    31 1   
    35    15    32 1   
    36    16    33 1   
    37    16    34 1   
    38    17    21 1   
    39    17    35 1   
    40    20    36 1   
    41    21    37 1   
@<TRIPOS>SUBSTRUCTURE
     1 3ZI         1 TEMP              0 ****  ****    0 ROOT
