@<TRIPOS>MOLECULE
3ZI
   38    41     1     0     0
SMALL
bcc


@<TRIPOS>ATOM
      1 C10          4.8850    30.4490    -6.7100 c6         1 3ZI       0.040700
      2 C15          2.2180    30.5610   -10.2740 ca         1 3ZI      -0.088200
      3 C20          3.2880    28.5390    -9.4500 ca         1 3ZI      -0.096000
      4 C21          3.2470    29.9380    -9.5370 ca         1 3ZI      -0.074800
      5 O01          7.2280    30.0660    -6.2790 o          1 3ZI      -0.631500
      6 C07          6.9170    30.4020    -3.5000 c5         1 3ZI       0.104000
      7 C08          3.7190    31.5810    -4.8490 c          1 3ZI       0.703500
      8 C11          5.2680    30.8390    -8.1400 c3         1 3ZI      -0.001200
      9 C12          4.0730    30.9890    -9.0220 cc         1 3ZI      -0.163400
     10 C16          1.2440    29.7970   -10.9060 ca         1 3ZI       0.121900
     11 C18          1.2830    28.4290   -10.8200 ca         1 3ZI      -0.150000
     12 C19          2.3120    27.8050   -10.0920 ca         1 3ZI      -0.132000
     13 C02          6.1180    30.3030    -5.8240 c          1 3ZI       0.701500
     14 C04          4.5530    30.6890    -3.9570 c5         1 3ZI       0.024700
     15 C05          4.8650    31.2600    -2.5810 c5         1 3ZI      -0.073400
     16 C06          6.1340    30.5060    -2.1930 c5         1 3ZI      -0.099400
     17 C13          3.5200    32.1610    -9.4620 cd         1 3ZI      -0.100100
     18 F17          0.2700    30.4190   -11.5910 f          1 3ZI      -0.146900
     19 N03          5.8750    30.4450    -4.5200 n          1 3ZI      -0.476800
     20 N09          3.9890    31.4450    -6.1550 ns         1 3ZI      -0.567900
     21 N14          2.4090    31.9070   -10.2130 na         1 3ZI      -0.154400
     22 O22          2.8720    32.3360    -4.4020 o          1 3ZI      -0.626500
     23 H1           4.3860    29.4690    -6.7370 h1         1 3ZI       0.066700
     24 H3           7.5010    29.4850    -3.5710 h1         1 3ZI       0.058700
     25 H4           7.5990    31.2460    -3.6310 h1         1 3ZI       0.058700
     26 H5           5.9340    30.0700    -8.5340 hc         1 3ZI       0.072700
     27 H6           5.8350    31.7720    -8.1200 hc         1 3ZI       0.072700
     28 H7           0.5240    27.8360   -11.3140 ha         1 3ZI       0.149000
     29 H8           2.3280    26.7250   -10.0380 ha         1 3ZI       0.135000
     30 H9           4.0080    29.7390    -3.8500 h1         1 3ZI       0.071700
     31 H10          5.0620    32.3310    -2.6530 hc         1 3ZI       0.068700
     32 H11          4.0460    31.1130    -1.8790 hc         1 3ZI       0.068700
     33 H12          5.8810    29.5090    -1.8250 hc         1 3ZI       0.055700
     34 H13          6.7040    31.0100    -1.4140 hc         1 3ZI       0.055700
     35 H14          3.8500    33.1750    -9.2960 h4         1 3ZI       0.169000
     36 H15          3.3970    31.9450    -6.8060 hn         1 3ZI       0.330500
     37 H16          1.8360    32.6090   -10.6520 hn         1 3ZI       0.313700
     38 H2           4.0720    28.0430    -8.8930 ha         1 3ZI       0.138000
@<TRIPOS>BOND
     1     1     8 1   
     2     1    13 1   
     3     1    20 1   
     4     1    23 1   
     5     2     4 ar  
     6     2    10 ar  
     7     2    21 1   
     8     3     4 ar  
     9     3    12 ar  
    10     3    38 1   
    11     4     9 1   
    12     5    13 2   
    13     6    16 1   
    14     6    19 1   
    15     6    24 1   
    16     6    25 1   
    17     7    14 1   
    18     7    20 1   
    19     7    22 2   
    20     8     9 1   
    21     8    26 1   
    22     8    27 1   
    23     9    17 2   
    24    10    11 ar  
    25    10    18 1   
    26    11    12 ar  
    27    11    28 1   
    28    12    29 1   
    29    13    19 1   
    30    14    15 1   
    31    14    19 1   
    32    14    30 1   
    33    15    16 1   
    34    15    31 1   
    35    15    32 1   
    36    16    33 1   
    37    16    34 1   
    38    17    21 1   
    39    17    35 1   
    40    20    36 1   
    41    21    37 1   
@<TRIPOS>SUBSTRUCTURE
     1 3ZI         1 TEMP              0 ****  ****    0 ROOT
