@<TRIPOS>MOLECULE
3ZJ
   76    78     1     0     0
SMALL
No Charge or Current Charge


@<TRIPOS>ATOM
      1 C1           2.0740     3.2360     2.0040 c          1 3ZJ       0.613700
      2 C3           0.2080     2.5480     0.4040 c3         1 3ZJ       0.112000
      3 C11         -2.7730    -1.1530    -1.1250 c3         1 3ZJ      -0.272100
      4 C13          3.1230    -0.8590     3.0770 ca         1 3ZJ       0.126100
      5 C14          2.5920     1.4430     3.7010 ca         1 3ZJ      -0.070000
      6 C15          1.1830     4.9380     0.3790 c3         1 3ZJ       0.110700
      7 C16          2.9410     0.1320     4.0670 ca         1 3ZJ      -0.182000
      8 C17         -1.4490     2.8540     2.3810 c5         1 3ZJ       0.142800
      9 C18         -3.4530     2.0750     1.3510 c5         1 3ZJ       0.120800
     10 C20         -2.2380    -2.4790    -1.6540 ca         1 3ZJ      -0.082300
     11 C22          2.7650    -2.6940    -1.3060 c3         1 3ZJ      -0.084400
     12 C24          2.6370    -1.3420    -0.5860 c3         1 3ZJ       0.159600
     13 C25          2.1580    -2.6570    -2.7200 c3         1 3ZJ       0.159600
     14 C26          0.8560     5.0330    -1.1300 c3         1 3ZJ      -0.105100
     15 C27          0.2550     5.8730     1.1900 c3         1 3ZJ      -0.105100
     16 C28         -1.2370    -3.1700    -0.9440 ca         1 3ZJ      -0.085000
     17 C29         -2.7360    -3.0190    -2.8550 ca         1 3ZJ      -0.085000
     18 C30          3.6170    -2.6040     4.7620 c3         1 3ZJ       0.144900
     19 N2           1.2170     3.5360     0.9060 n          1 3ZJ      -0.406800
     20 C4          -1.2570     2.7680     0.8410 c5         1 3ZJ      -0.118700
     21 N5          -2.5510     1.5660    -0.9100 n7         1 3ZJ      -0.908300
     22 C6           2.4160     1.7960     2.3480 ca         1 3ZJ      -0.144600
     23 C7          -2.2120     1.5800     0.5440 c5         1 3ZJ       0.191500
     24 C8           2.6480     0.8140     1.3560 ca         1 3ZJ      -0.152000
     25 C9           2.9670    -0.5160     1.7140 ca         1 3ZJ       0.114100
     26 N10         -2.9070     2.6560     2.6120 n7         1 3ZJ      -0.830400
     27 O12          2.6040     4.1390     2.6420 o          1 3ZJ      -0.594100
     28 O19          3.1180    -1.5070     0.7580 os         1 3ZJ      -0.326100
     29 O23          2.3150    -3.9630    -3.2970 os         1 3ZJ      -0.452000
     30 C31          1.7540    -4.1000    -4.6130 c3         1 3ZJ       0.146900
     31 C32         -0.7400    -4.3920    -1.4310 ca         1 3ZJ      -0.108000
     32 C33         -2.2360    -4.2400    -3.3430 ca         1 3ZJ      -0.108000
     33 C34         -1.2390    -4.9270    -2.6300 ca         1 3ZJ      -0.098000
     34 S35         -1.8970     0.2860    -1.7720 s6         1 3ZJ       1.198100
     35 O36         -0.4820     0.2010    -1.4080 o          1 3ZJ      -0.526500
     36 O37         -2.2810     0.5160    -3.1660 o          1 3ZJ      -0.526500
     37 H1           0.2510     2.5230    -0.6910 h1         1 3ZJ       0.064200
     38 H2           0.4550     1.5400     0.7410 h1         1 3ZJ       0.064200
     39 H3          -3.8270    -1.0270    -1.3970 h1         1 3ZJ       0.092200
     40 H4          -2.6800    -1.1250    -0.0360 h1         1 3ZJ       0.092200
     41 H5           2.4510     2.1910     4.4800 ha         1 3ZJ       0.126000
     42 H6           2.2010     5.3390     0.4840 h1         1 3ZJ       0.073700
     43 H7           3.0580    -0.0950     5.1220 ha         1 3ZJ       0.123000
     44 H8          -0.8770     2.0570     2.8790 h1         1 3ZJ       0.061700
     45 H9          -1.0990     3.8110     2.7920 h1         1 3ZJ       0.061700
     46 H10         -3.9850     2.8590     0.7920 h1         1 3ZJ       0.059200
     47 H11         -4.1710     1.2660     1.5490 h1         1 3ZJ       0.059200
     48 H12          3.8230    -2.9710    -1.3700 hc         1 3ZJ       0.068700
     49 H13          2.2550    -3.4650    -0.7170 hc         1 3ZJ       0.068700
     50 H14          3.2150    -0.5780    -1.1220 h1         1 3ZJ       0.036200
     51 H15          1.5820    -1.0430    -0.5730 h1         1 3ZJ       0.036200
     52 H16          1.0960    -2.3860    -2.6570 h1         1 3ZJ       0.022200
     53 H17          2.6760    -1.9010    -3.3250 h1         1 3ZJ       0.022200
     54 H18          0.9970     6.0610    -1.4860 hc         1 3ZJ       0.041700
     55 H19          1.5230     4.3840    -1.7100 hc         1 3ZJ       0.041700
     56 H20         -0.1810     4.7460    -1.3390 hc         1 3ZJ       0.041700
     57 H21         -0.8020     5.6280     1.0460 hc         1 3ZJ       0.041700
     58 H22          0.4780     5.8140     2.2620 hc         1 3ZJ       0.041700
     59 H23          0.4000     6.9140     0.8770 hc         1 3ZJ       0.041700
     60 H24         -0.8420    -2.7610    -0.0170 ha         1 3ZJ       0.118500
     61 H25         -3.5080    -2.4940    -3.4130 ha         1 3ZJ       0.118500
     62 H26          3.8670    -3.6720     4.7880 h1         1 3ZJ       0.041367
     63 H27          4.4310    -2.0530     5.2500 h1         1 3ZJ       0.041367
     64 H28          2.6950    -2.4570     5.3380 h1         1 3ZJ       0.041367
     65 H29         -1.6190     3.6770     0.3500 hc         1 3ZJ       0.073700
     66 H30         -3.5400     1.3490    -1.0260 hn         1 3ZJ       0.497000
     67 H31         -1.8350     0.6240     0.9390 h1         1 3ZJ       0.067700
     68 H32          2.5820     1.0980     0.3100 ha         1 3ZJ       0.128000
     69 H33         -3.0330     1.9960     3.3910 hn         1 3ZJ       0.406000
     70 H35          2.2380    -3.4090    -5.3160 h1         1 3ZJ       0.029367
     71 H36          1.8970    -5.1220    -4.9840 h1         1 3ZJ       0.029367
     72 H37          0.6770    -3.8870    -4.6030 h1         1 3ZJ       0.029367
     73 H38          0.0350    -4.9220    -0.8810 ha         1 3ZJ       0.117500
     74 H39         -2.6220    -4.6520    -4.2720 ha         1 3ZJ       0.117500
     75 H40         -0.8510    -5.8700    -3.0080 ha         1 3ZJ       0.115000
     76 O21          3.4460    -2.1660     3.4030 os         1 3ZJ      -0.318100
@<TRIPOS>BOND
     1     1    19 1   
     2     1    22 1   
     3     1    27 2   
     4     2    19 1   
     5     2    20 1   
     6     2    37 1   
     7     2    38 1   
     8     3    10 1   
     9     3    34 1   
    10     3    39 1   
    11     3    40 1   
    12     4     7 ar  
    13     4    25 ar  
    14     4    76 1   
    15     5     7 ar  
    16     5    22 ar  
    17     5    41 1   
    18     6    14 1   
    19     6    15 1   
    20     6    19 1   
    21     6    42 1   
    22     7    43 1   
    23     8    20 1   
    24     8    26 1   
    25     8    44 1   
    26     8    45 1   
    27     9    23 1   
    28     9    26 1   
    29     9    46 1   
    30     9    47 1   
    31    10    16 ar  
    32    10    17 ar  
    33    11    12 1   
    34    11    13 1   
    35    11    48 1   
    36    11    49 1   
    37    12    28 1   
    38    12    50 1   
    39    12    51 1   
    40    13    29 1   
    41    13    52 1   
    42    13    53 1   
    43    14    54 1   
    44    14    55 1   
    45    14    56 1   
    46    15    57 1   
    47    15    58 1   
    48    15    59 1   
    49    16    31 ar  
    50    16    60 1   
    51    17    32 ar  
    52    17    61 1   
    53    18    62 1   
    54    18    63 1   
    55    18    64 1   
    56    18    76 1   
    57    20    23 1   
    58    20    65 1   
    59    21    23 1   
    60    21    34 1   
    61    21    66 1   
    62    22    24 ar  
    63    23    67 1   
    64    24    25 ar  
    65    24    68 1   
    66    25    28 1   
    67    26    69 1   
    68    29    30 1   
    69    30    70 1   
    70    30    71 1   
    71    30    72 1   
    72    31    33 ar  
    73    31    73 1   
    74    32    33 ar  
    75    32    74 1   
    76    33    75 1   
    77    34    35 2   
    78    34    36 2   
@<TRIPOS>SUBSTRUCTURE
     1 3ZJ         1 TEMP              0 ****  ****    0 ROOT
