@<TRIPOS>MOLECULE
3ZJ
   76    78     1     0     0
SMALL
abcg2


@<TRIPOS>ATOM
      1 C1           2.1380     3.2760     1.4620 c          1 3ZJ       0.613700
      2 C3           0.1310     2.2080     0.4930 c3         1 3ZJ       0.112000
      3 C11         -3.8310    -1.1810    -0.7840 c3         1 3ZJ      -0.272100
      4 C13          3.5300    -0.4140     3.1480 ca         1 3ZJ       0.126100
      5 C14          2.6980     1.8350     3.4120 ca         1 3ZJ      -0.070000
      6 C15          0.8200     4.5650    -0.0960 c3         1 3ZJ       0.110700
      7 C16          3.1640     0.6440     3.9640 ca         1 3ZJ      -0.182000
      8 C17         -1.1960     2.5990     2.6850 c5         1 3ZJ       0.142800
      9 C18         -3.0850     1.3330     2.1320 c5         1 3ZJ       0.120800
     10 C20         -3.8760    -2.3290    -1.7420 ca         1 3ZJ      -0.082300
     11 C22          4.1540    -2.6170    -0.9450 c3         1 3ZJ      -0.084400
     12 C24          3.6790    -1.2940    -0.3820 c3         1 3ZJ       0.159600
     13 C25          4.0590    -2.6160    -2.4590 c3         1 3ZJ       0.159600
     14 C26          0.1660     4.3260    -1.4520 c3         1 3ZJ      -0.105100
     15 C27          0.0300     5.5730     0.7360 c3         1 3ZJ      -0.105100
     16 C28         -2.8990    -3.3200    -1.7040 ca         1 3ZJ      -0.085000
     17 C29         -4.8790    -2.3980    -2.7050 ca         1 3ZJ      -0.085000
     18 C30          4.1510    -1.7880     4.9710 c3         1 3ZJ       0.144900
     19 N2           1.0800     3.3040     0.6180 n          1 3ZJ      -0.406800
     20 C4          -1.2210     2.4550     1.1480 c5         1 3ZJ      -0.118700
     21 N5          -2.8460     1.3650    -0.3750 n7         1 3ZJ      -0.908300
     22 C6           2.5650     1.9640     2.0440 ca         1 3ZJ      -0.144600
     23 C7          -2.1700     1.2760     0.9070 c5         1 3ZJ       0.191500
     24 C8           2.9380     0.9020     1.2120 ca         1 3ZJ      -0.152000
     25 C9           3.4200    -0.2780     1.7470 ca         1 3ZJ       0.114100
     26 N10         -2.2070     1.6840     3.2340 n7         1 3ZJ      -0.830400
     27 O12          2.7840     4.2790     1.7400 o          1 3ZJ      -0.594100
     28 O19          3.8060    -1.3470     1.0290 os         1 3ZJ      -0.326100
     29 O23          4.5020    -3.8580    -2.9450 os         1 3ZJ      -0.452000
     30 C31          4.4730    -3.9280    -4.3470 c3         1 3ZJ       0.146900
     31 C32         -2.9320    -4.3720    -2.6080 ca         1 3ZJ      -0.108000
     32 C33         -4.9130    -3.4500    -3.6090 ca         1 3ZJ      -0.108000
     33 C34         -3.9380    -4.4390    -3.5630 ca         1 3ZJ      -0.098000
     34 S35         -2.8270     0.1510    -1.4670 s6         1 3ZJ       1.198100
     35 O36         -1.4590    -0.3400    -1.5580 o          1 3ZJ      -0.526500
     36 O37         -3.4900     0.6530    -2.6610 o          1 3ZJ      -0.526500
     37 H1          -0.0160     1.9730    -0.5620 h1         1 3ZJ       0.064200
     38 H2           0.5580     1.3140     0.9400 h1         1 3ZJ       0.064200
     39 H3          -4.8190    -0.7580    -0.5940 h1         1 3ZJ       0.092200
     40 H4          -3.3800    -1.4550     0.1710 h1         1 3ZJ       0.092200
     41 H5           2.4290     2.6520     4.0700 ha         1 3ZJ       0.126000
     42 H6           1.8000     5.0020    -0.2900 h1         1 3ZJ       0.073700
     43 H7           3.2380     0.5610     5.0400 ha         1 3ZJ       0.123000
     44 H8          -0.2190     2.3580     3.1080 h1         1 3ZJ       0.061700
     45 H9          -1.4180     3.6300     2.9720 h1         1 3ZJ       0.061700
     46 H10         -3.8420     2.1120     1.9870 h1         1 3ZJ       0.059200
     47 H11         -3.6070     0.3950     2.3270 h1         1 3ZJ       0.059200
     48 H12          5.1910    -2.7920    -0.6440 hc         1 3ZJ       0.068700
     49 H13          3.5460    -3.4290    -0.5380 hc         1 3ZJ       0.068700
     50 H14          4.2780    -0.4700    -0.7880 h1         1 3ZJ       0.036200
     51 H15          2.6350    -1.1100    -0.6620 h1         1 3ZJ       0.036200
     52 H16          3.0210    -2.4260    -2.7720 h1         1 3ZJ       0.022200
     53 H17          4.6670    -1.7980    -2.8730 h1         1 3ZJ       0.022200
     54 H18          0.1330     5.2710    -1.9940 hc         1 3ZJ       0.041700
     55 H19          0.7370     3.6200    -2.0560 hc         1 3ZJ       0.041700
     56 H20         -0.8600     3.9620    -1.3760 hc         1 3ZJ       0.041700
     57 H21         -0.9990     5.2580     0.9030 hc         1 3ZJ       0.041700
     58 H22          0.4970     5.7450     1.7050 hc         1 3ZJ       0.041700
     59 H23         -0.0050     6.5290     0.2110 hc         1 3ZJ       0.041700
     60 H24         -2.1160    -3.2760    -0.9580 ha         1 3ZJ       0.118500
     61 H25         -5.6460    -1.6340    -2.7420 ha         1 3ZJ       0.118500
     62 H26          4.5480    -2.7910     5.1020 h1         1 3ZJ       0.041367
     63 H27          4.8530    -1.0710     5.4060 h1         1 3ZJ       0.041367
     64 H28          3.1970    -1.7140     5.5010 h1         1 3ZJ       0.041367
     65 H29         -1.6960     3.3350     0.7080 hc         1 3ZJ       0.073700
     66 H30         -3.6750     1.9470    -0.4140 hn         1 3ZJ       0.497000
     67 H31         -1.6020     0.3400     0.9360 h1         1 3ZJ       0.067700
     68 H32          2.8480     1.0200     0.1390 ha         1 3ZJ       0.128000
     69 H33         -1.7460     0.8430     3.5570 hn         1 3ZJ       0.406000
     70 H35          5.1280    -3.1790    -4.8090 h1         1 3ZJ       0.029367
     71 H36          4.8190    -4.9180    -4.6430 h1         1 3ZJ       0.029367
     72 H37          3.4620    -3.7810    -4.7460 h1         1 3ZJ       0.029367
     73 H38         -2.1710    -5.1410    -2.5660 ha         1 3ZJ       0.117500
     74 H39         -5.7010    -3.4990    -4.3490 ha         1 3ZJ       0.117500
     75 H40         -3.9650    -5.2610    -4.2670 ha         1 3ZJ       0.115000
     76 O21          3.9980    -1.5960     3.5780 os         1 3ZJ      -0.318100
@<TRIPOS>BOND
     1     1    19 1   
     2     1    22 1   
     3     1    27 2   
     4     2    19 1   
     5     2    20 1   
     6     2    37 1   
     7     2    38 1   
     8     3    10 1   
     9     3    34 1   
    10     3    39 1   
    11     3    40 1   
    12     4     7 ar  
    13     4    25 ar  
    14     4    76 1   
    15     5     7 ar  
    16     5    22 ar  
    17     5    41 1   
    18     6    14 1   
    19     6    15 1   
    20     6    19 1   
    21     6    42 1   
    22     7    43 1   
    23     8    20 1   
    24     8    26 1   
    25     8    44 1   
    26     8    45 1   
    27     9    23 1   
    28     9    26 1   
    29     9    46 1   
    30     9    47 1   
    31    10    16 ar  
    32    10    17 ar  
    33    11    12 1   
    34    11    13 1   
    35    11    48 1   
    36    11    49 1   
    37    12    28 1   
    38    12    50 1   
    39    12    51 1   
    40    13    29 1   
    41    13    52 1   
    42    13    53 1   
    43    14    54 1   
    44    14    55 1   
    45    14    56 1   
    46    15    57 1   
    47    15    58 1   
    48    15    59 1   
    49    16    31 ar  
    50    16    60 1   
    51    17    32 ar  
    52    17    61 1   
    53    18    62 1   
    54    18    63 1   
    55    18    64 1   
    56    18    76 1   
    57    20    23 1   
    58    20    65 1   
    59    21    23 1   
    60    21    34 1   
    61    21    66 1   
    62    22    24 ar  
    63    23    67 1   
    64    24    25 ar  
    65    24    68 1   
    66    25    28 1   
    67    26    69 1   
    68    29    30 1   
    69    30    70 1   
    70    30    71 1   
    71    30    72 1   
    72    31    33 ar  
    73    31    73 1   
    74    32    33 ar  
    75    32    74 1   
    76    33    75 1   
    77    34    35 2   
    78    34    36 2   
@<TRIPOS>SUBSTRUCTURE
     1 3ZJ         1 TEMP              0 ****  ****    0 ROOT
