@<TRIPOS>MOLECULE
3ZK
   76    78     1     0     0
SMALL
No Charge or Current Charge


@<TRIPOS>ATOM
      1 C2          -1.1300     2.3150    -2.7200 c          1 3ZK       0.611700
      2 C13         -1.9130    -1.2790    -1.5800 ca         1 3ZK       0.112100
      3 C16         -1.3370    -2.0280    -2.6330 ca         1 3ZK       0.125100
      4 C17         -0.6650     0.0500    -3.7330 ca         1 3ZK      -0.071000
      5 C19         -0.7190    -1.3540    -3.7110 ca         1 3ZK      -0.181000
      6 C20          3.0820    -1.6550     1.2020 ca         1 3ZK      -0.014000
      7 C21          0.9900    -0.9730     2.2510 ca         1 3ZK      -0.014000
      8 C22          2.2440     2.4060    -2.1350 c5         1 3ZK       0.138800
      9 C23          3.9680     1.8770    -0.5810 c5         1 3ZK       0.110800
     10 C25          2.4460    -2.7980     0.6880 ca         1 3ZK      -0.132500
     11 C26          0.3640    -2.1210     1.7390 ca         1 3ZK      -0.132500
     12 C27          1.0830    -3.0340     0.9470 ca         1 3ZK      -0.016300
     13 N3          -0.7190     3.0250    -1.5590 n          1 3ZK      -0.405800
     14 N4           2.5110     1.8770     1.4790 n7         1 3ZK      -0.869300
     15 C5           0.1650     2.3740    -0.5420 c3         1 3ZK       0.108000
     16 C6           1.6820     2.6300    -0.7080 c5         1 3ZK      -0.120700
     17 C7          -1.1980     0.8040    -2.6710 ca         1 3ZK      -0.145600
     18 C8           2.5530     1.5860     0.0250 c5         1 3ZK       0.174500
     19 C9           2.3520    -0.7350     1.9830 ca         1 3ZK      -0.315500
     20 C10         -1.8430     0.1330    -1.6070 ca         1 3ZK      -0.154000
     21 O11          4.5710     0.7450     2.3550 o          1 3ZK      -0.534500
     22 O12          2.5250     1.1460     3.8600 o          1 3ZK      -0.534500
     23 N14          3.7140     2.4650    -1.9310 n7         1 3ZK      -0.826400
     24 O15         -1.4930     2.9050    -3.7300 o          1 3ZK      -0.592100
     25 O28         -1.4080    -3.4100    -2.5810 os         1 3ZK      -0.317100
     26 O30         -4.9630    -2.8390     3.5020 os         1 3ZK      -0.451000
     27 C31         -3.1630    -1.2830     0.5550 c3         1 3ZK       0.161600
     28 C32         -4.4240    -1.7560     2.7290 c3         1 3ZK       0.160600
     29 C33         -1.1630     5.0230    -0.0400 c3         1 3ZK      -0.105600
     30 C34          0.1160     5.3350    -2.2070 c3         1 3ZK      -0.105600
     31 C36         -0.8110    -4.2530    -3.5810 c3         1 3ZK       0.143900
     32 C37         -5.6030    -2.4370     4.7250 c3         1 3ZK       0.146900
     33 H1          -0.1890     0.5560    -4.5720 ha         1 3ZK       0.127000
     34 H2          -1.9130     4.6910    -2.0000 h1         1 3ZK       0.073700
     35 H3          -0.2810    -1.9000    -4.5420 ha         1 3ZK       0.124000
     36 H4           4.1340    -1.4830     0.9780 ha         1 3ZK       0.133500
     37 H5           0.4110    -0.2650     2.8430 ha         1 3ZK       0.133500
     38 H6           1.9410     1.4220    -2.5240 h1         1 3ZK       0.063200
     39 H7           1.9020     3.1660    -2.8510 h1         1 3ZK       0.063200
     40 H8           4.5340     2.5920     0.0320 h1         1 3ZK       0.061700
     41 H9           4.5630     0.9550    -0.6450 h1         1 3ZK       0.061700
     42 H10          3.0130    -3.4990     0.0800 ha         1 3ZK       0.119500
     43 H11         -0.6860    -2.2970     1.9540 ha         1 3ZK       0.119500
     44 H12         -4.5380    -2.9130     0.9060 hc         1 3ZK       0.069700
     45 H13         -3.0040    -3.0710     1.7660 hc         1 3ZK       0.069700
     46 H14          3.0450     2.7140     1.7000 hn         1 3ZK       0.485000
     47 H15         -0.1370     2.6800     0.4670 h1         1 3ZK       0.058200
     48 H16          0.0310     1.2890    -0.5600 h1         1 3ZK       0.058200
     49 H17          1.8930     3.6460    -0.3590 hc         1 3ZK       0.080700
     50 H18          2.2120     0.5700    -0.2200 h1         1 3ZK       0.076700
     51 H19         -2.2880     0.7280    -0.8140 ha         1 3ZK       0.126000
     52 H20          4.2010     1.9350    -2.6660 hn         1 3ZK       0.410000
     53 H22         -3.9520    -0.6050     0.2040 h1         1 3ZK       0.033200
     54 H23         -2.4210    -0.7010     1.1170 h1         1 3ZK       0.033200
     55 H24         -3.6660    -1.2080     3.3040 h1         1 3ZK       0.021200
     56 H25         -5.2170    -1.0540     2.4390 h1         1 3ZK       0.021200
     57 H26         -1.4970     6.0670    -0.0560 hc         1 3ZK       0.042033
     58 H27         -1.9270     4.4340     0.4810 hc         1 3ZK       0.042033
     59 H28         -0.2310     4.9770     0.5370 hc         1 3ZK       0.042033
     60 H29          0.2580     4.9840    -3.2360 hc         1 3ZK       0.042033
     61 H30         -0.1870     6.3880    -2.2540 hc         1 3ZK       0.042033
     62 H31          1.0810     5.2900    -1.6910 hc         1 3ZK       0.042033
     63 H32          0.5590    -5.1370     1.0210 hc         1 3ZK       0.051033
     64 H33         -0.6870    -4.1140     0.2860 hc         1 3ZK       0.051033
     65 H34          0.7770    -4.5060    -0.6210 hc         1 3ZK       0.051033
     66 H35         -0.9750    -5.3090    -3.3330 h1         1 3ZK       0.042367
     67 H36         -1.2540    -4.0630    -4.5670 h1         1 3ZK       0.042367
     68 H37          0.2710    -4.0820    -3.6400 h1         1 3ZK       0.042367
     69 H38         -4.8940    -1.9190     5.3840 h1         1 3ZK       0.029700
     70 H39         -6.4450    -1.7630     4.5220 h1         1 3ZK       0.029700
     71 H40         -5.9890    -3.3140     5.2600 h1         1 3ZK       0.029700
     72 O24         -2.5430    -1.9580    -0.5510 os         1 3ZK      -0.325100
     73 C18         -0.9630     4.4990    -1.4810 c3         1 3ZK       0.109700
     74 S1           3.1240     0.7790     2.5750 sy         1 3ZK       1.157600
     75 C35          0.3950    -4.2650     0.3780 c3         1 3ZK      -0.059800
     76 C29         -3.7800    -2.3570     1.4680 c3         1 3ZK      -0.084400
@<TRIPOS>BOND
     1     1    13 1   
     2     1    17 1   
     3     1    24 2   
     4     2     3 ar  
     5     2    20 ar  
     6     2    72 1   
     7     3     5 ar  
     8     3    25 1   
     9     4     5 ar  
    10     4    17 ar  
    11     4    33 1   
    12     5    35 1   
    13     6    10 ar  
    14     6    19 ar  
    15     6    36 1   
    16     7    11 ar  
    17     7    19 ar  
    18     7    37 1   
    19     8    16 1   
    20     8    23 1   
    21     8    38 1   
    22     8    39 1   
    23     9    18 1   
    24     9    23 1   
    25     9    40 1   
    26     9    41 1   
    27    10    12 ar  
    28    10    42 1   
    29    11    12 ar  
    30    11    43 1   
    31    12    75 1   
    32    13    15 1   
    33    13    73 1   
    34    14    18 1   
    35    14    46 1   
    36    14    74 1   
    37    15    16 1   
    38    15    47 1   
    39    15    48 1   
    40    16    18 1   
    41    16    49 1   
    42    17    20 ar  
    43    18    50 1   
    44    19    74 1   
    45    20    51 1   
    46    21    74 2   
    47    22    74 2   
    48    23    52 1   
    49    25    31 1   
    50    26    28 1   
    51    26    32 1   
    52    27    53 1   
    53    27    54 1   
    54    27    72 1   
    55    27    76 1   
    56    28    55 1   
    57    28    56 1   
    58    28    76 1   
    59    29    57 1   
    60    29    58 1   
    61    29    59 1   
    62    29    73 1   
    63    30    60 1   
    64    30    61 1   
    65    30    62 1   
    66    30    73 1   
    67    31    66 1   
    68    31    67 1   
    69    31    68 1   
    70    32    69 1   
    71    32    70 1   
    72    32    71 1   
    73    34    73 1   
    74    44    76 1   
    75    45    76 1   
    76    63    75 1   
    77    64    75 1   
    78    65    75 1   
@<TRIPOS>SUBSTRUCTURE
     1 3ZK         1 TEMP              0 ****  ****    0 ROOT
