@<TRIPOS>MOLECULE
3ZK
   76    78     1     0     0
SMALL
abcg2


@<TRIPOS>ATOM
      1 C2          -1.7380     2.6620    -2.5080 c          1 3ZK       0.611700
      2 C13         -3.1960    -0.7690    -1.8390 ca         1 3ZK       0.112100
      3 C16         -2.8090    -1.4610    -3.0080 ca         1 3ZK       0.125100
      4 C17         -1.7130     0.5370    -3.8020 ca         1 3ZK      -0.071000
      5 C19         -2.0690    -0.8000    -3.9740 ca         1 3ZK      -0.181000
      6 C20          5.0270    -0.6890     2.0260 ca         1 3ZK      -0.014000
      7 C21          2.9390    -1.8970     2.1230 ca         1 3ZK      -0.014000
      8 C22          1.6980     1.7180    -2.2320 c5         1 3ZK       0.138800
      9 C23          2.7010     0.1560    -0.8850 c5         1 3ZK       0.110800
     10 C25          5.6780    -1.8600     1.6780 ca         1 3ZK      -0.132500
     11 C26          3.6070    -3.0600     1.7730 ca         1 3ZK      -0.132500
     12 C27          4.9810    -3.0620     1.5450 ca         1 3ZK      -0.016300
     13 N3          -0.9910     3.0530    -1.4490 n          1 3ZK      -0.405800
     14 N4           2.6330     1.6130     1.1940 n7         1 3ZK      -0.869300
     15 C5          -0.2560     2.1190    -0.6150 c3         1 3ZK       0.108000
     16 C6           1.2600     2.1220    -0.8120 c5         1 3ZK      -0.120700
     17 C7          -2.0710     1.2090    -2.6500 ca         1 3ZK      -0.145600
     18 C8           1.8840     1.0300     0.0900 c5         1 3ZK       0.174500
     19 C9           3.6550    -0.7160     2.2450 ca         1 3ZK      -0.315500
     20 C10         -2.8240     0.5520    -1.6720 ca         1 3ZK      -0.154000
     21 O11          3.6770     1.6220     3.4340 o          1 3ZK      -0.534500
     22 O12          1.4760     0.4490     3.0730 o          1 3ZK      -0.534500
     23 N14          2.0750     0.3110    -2.1850 n7         1 3ZK      -0.826400
     24 O15         -2.1690     3.4530    -3.3390 o          1 3ZK      -0.592100
     25 O28         -3.2070    -2.7410    -3.0790 os         1 3ZK      -0.317100
     26 O30         -6.0040    -2.3320     3.2260 os         1 3ZK      -0.451000
     27 C31         -4.2490    -0.8840     0.2850 c3         1 3ZK       0.161600
     28 C32         -5.3690    -1.3350     2.4670 c3         1 3ZK       0.160600
     29 C33         -0.6180     4.8560     0.2170 c3         1 3ZK      -0.105600
     30 C34          0.3050     5.0790    -2.1210 c3         1 3ZK      -0.105600
     31 C36         -2.8720    -3.4810    -4.2360 c3         1 3ZK       0.143900
     32 C37         -6.4160    -1.8670     4.4850 c3         1 3ZK       0.146900
     33 H1          -1.1460     1.0350    -4.5780 ha         1 3ZK       0.127000
     34 H2          -1.7420     4.9630    -1.5720 h1         1 3ZK       0.073700
     35 H3          -1.7580    -1.3100    -4.8750 ha         1 3ZK       0.124000
     36 H4           5.5930     0.2280     2.1250 ha         1 3ZK       0.133500
     37 H5           1.8710    -1.9230     2.2930 ha         1 3ZK       0.133500
     38 H6           0.9280     1.8840    -2.9860 h1         1 3ZK       0.063200
     39 H7           2.5660     2.3090    -2.5340 h1         1 3ZK       0.063200
     40 H8           3.7320     0.5240    -0.9310 h1         1 3ZK       0.061700
     41 H9           2.7400    -0.8920    -0.5900 h1         1 3ZK       0.061700
     42 H10          6.7470    -1.8370     1.5070 ha         1 3ZK       0.119500
     43 H11          3.0450    -3.9800     1.6750 ha         1 3ZK       0.119500
     44 H12         -5.8640    -2.2610     0.5940 hc         1 3ZK       0.069700
     45 H13         -4.3210    -2.7820     1.2760 hc         1 3ZK       0.069700
     46 H14          3.4800     2.1020     0.9210 hn         1 3ZK       0.485000
     47 H15         -0.4830     2.3050     0.4380 h1         1 3ZK       0.058200
     48 H16         -0.6160     1.1140    -0.8210 h1         1 3ZK       0.058200
     49 H17          1.6740     3.0940    -0.5370 hc         1 3ZK       0.080700
     50 H18          1.0830     0.4280     0.5270 h1         1 3ZK       0.076700
     51 H19         -3.1170     1.0920    -0.7800 ha         1 3ZK       0.126000
     52 H20          1.2430    -0.2670    -2.2280 hn         1 3ZK       0.410000
     53 H22         -4.8860    -0.0050     0.1290 h1         1 3ZK       0.033200
     54 H23         -3.3400    -0.5450     0.7960 h1         1 3ZK       0.033200
     55 H24         -4.4790    -0.9570     2.9920 h1         1 3ZK       0.021200
     56 H25         -6.0380    -0.4740     2.3220 h1         1 3ZK       0.021200
     57 H26         -0.6280     5.9410     0.3160 hc         1 3ZK       0.042033
     58 H27         -1.4260     4.4630     0.8360 hc         1 3ZK       0.042033
     59 H28          0.3310     4.5050     0.6270 hc         1 3ZK       0.042033
     60 H29          0.1660     4.8160    -3.1690 hc         1 3ZK       0.042033
     61 H30          0.2970     6.1670    -2.0470 hc         1 3ZK       0.042033
     62 H31          1.2930     4.7370    -1.8120 hc         1 3ZK       0.042033
     63 H32          6.1080    -4.8000     2.0880 hc         1 3ZK       0.051033
     64 H33          5.0410    -5.0450     0.7120 hc         1 3ZK       0.051033
     65 H34          6.5410    -4.1330     0.5230 hc         1 3ZK       0.051033
     66 H35         -3.2870    -4.4760    -4.0960 h1         1 3ZK       0.042367
     67 H36         -3.3020    -3.0430    -5.1400 h1         1 3ZK       0.042367
     68 H37         -1.7900    -3.5660    -4.3660 h1         1 3ZK       0.042367
     69 H38         -5.5730    -1.5030     5.0850 h1         1 3ZK       0.029700
     70 H39         -7.1450    -1.0520     4.4030 h1         1 3ZK       0.029700
     71 H40         -6.8830    -2.6960     5.0160 h1         1 3ZK       0.029700
     72 O24         -3.9180    -1.4820    -0.9570 os         1 3ZK      -0.325100
     73 C18         -0.8080     4.5000    -1.2510 c3         1 3ZK       0.109700
     74 S1           2.8100     0.7950     2.6100 sy         1 3ZK       1.157600
     75 C35          5.7030    -4.3260     1.1920 c3         1 3ZK      -0.059800
     76 C29         -4.9720    -1.9180     1.1230 c3         1 3ZK      -0.084400
@<TRIPOS>BOND
     1     1    13 1   
     2     1    17 1   
     3     1    24 2   
     4     2     3 ar  
     5     2    20 ar  
     6     2    72 1   
     7     3     5 ar  
     8     3    25 1   
     9     4     5 ar  
    10     4    17 ar  
    11     4    33 1   
    12     5    35 1   
    13     6    10 ar  
    14     6    19 ar  
    15     6    36 1   
    16     7    11 ar  
    17     7    19 ar  
    18     7    37 1   
    19     8    16 1   
    20     8    23 1   
    21     8    38 1   
    22     8    39 1   
    23     9    18 1   
    24     9    23 1   
    25     9    40 1   
    26     9    41 1   
    27    10    12 ar  
    28    10    42 1   
    29    11    12 ar  
    30    11    43 1   
    31    12    75 1   
    32    13    15 1   
    33    13    73 1   
    34    14    18 1   
    35    14    46 1   
    36    14    74 1   
    37    15    16 1   
    38    15    47 1   
    39    15    48 1   
    40    16    18 1   
    41    16    49 1   
    42    17    20 ar  
    43    18    50 1   
    44    19    74 1   
    45    20    51 1   
    46    21    74 2   
    47    22    74 2   
    48    23    52 1   
    49    25    31 1   
    50    26    28 1   
    51    26    32 1   
    52    27    53 1   
    53    27    54 1   
    54    27    72 1   
    55    27    76 1   
    56    28    55 1   
    57    28    56 1   
    58    28    76 1   
    59    29    57 1   
    60    29    58 1   
    61    29    59 1   
    62    29    73 1   
    63    30    60 1   
    64    30    61 1   
    65    30    62 1   
    66    30    73 1   
    67    31    66 1   
    68    31    67 1   
    69    31    68 1   
    70    32    69 1   
    71    32    70 1   
    72    32    71 1   
    73    34    73 1   
    74    44    76 1   
    75    45    76 1   
    76    63    75 1   
    77    64    75 1   
    78    65    75 1   
@<TRIPOS>SUBSTRUCTURE
     1 3ZK         1 TEMP              0 ****  ****    0 ROOT
