@<TRIPOS>MOLECULE
3ZL
   35    34     1     0     0
SMALL
abcg2


@<TRIPOS>ATOM
      1 C1         -43.6610   -48.0900   -55.1270 c2         1 3ZL       0.143000
      2 C2         -43.3310   -48.5930   -53.8960 ce         1 3ZL      -0.497200
      3 C3         -42.3280   -49.5700   -53.5670 c          1 3ZL       0.592500
      4 C4         -41.9450   -49.7200   -52.1150 ce         1 3ZL       0.037800
      5 C5         -42.1970   -48.7590   -51.2100 c2         1 3ZL      -0.414000
      6 N14        -41.2370   -50.8680   -51.8400 nv         1 3ZL      -0.936000
      7 N          -41.3640   -50.3370   -61.4270 n8         1 3ZL      -1.004200
      8 CA         -41.7590   -48.9380   -61.5480 c3         1 3ZL       0.022500
      9 CB         -41.2130   -48.1290   -60.3730 c3         1 3ZL      -0.050400
     10 CG         -41.7110   -48.6180   -59.0200 c3         1 3ZL      -0.080400
     11 CD         -41.1500   -47.8020   -57.8600 c3         1 3ZL      -0.097400
     12 CE         -41.5870   -48.3030   -56.4920 c3         1 3ZL       0.207800
     13 NZ         -43.0030   -48.0700   -56.2850 nu         1 3ZL      -0.786200
     14 C          -41.3050   -48.3470   -62.9100 c          1 3ZL       0.719000
     15 O          -40.9060   -49.1520   -63.7760 o          1 3ZL      -0.730000
     16 O13        -41.8190   -50.3440   -54.3750 o          1 3ZL      -0.577100
     17 O1         -41.4080   -47.1110   -63.0350 o          1 3ZL      -0.730000
     18 H1         -44.6100   -47.5670   -55.1850 h4         1 3ZL       0.161000
     19 H2         -43.9990   -48.2890   -53.1030 ha         1 3ZL       0.182000
     20 H4         -41.8990   -48.8680   -50.1750 ha         1 3ZL       0.164000
     21 H5         -42.6690   -47.8310   -51.4890 ha         1 3ZL       0.164000
     22 H6         -41.1860   -51.1310   -50.8700 hn         1 3ZL       0.448500
     23 H7         -41.4170   -51.6500   -52.4490 hn         1 3ZL       0.448500
     24 H11        -42.8580   -48.8250   -61.5320 h1         1 3ZL      -0.006300
     25 H12        -40.1180   -48.1690   -60.3910 hc         1 3ZL       0.044700
     26 H13        -41.4910   -47.0810   -60.5000 hc         1 3ZL       0.044700
     27 H14        -42.8070   -48.5900   -59.0140 hc         1 3ZL       0.031700
     28 H15        -41.4290   -49.6650   -58.8750 hc         1 3ZL       0.031700
     29 H16        -40.0580   -47.8440   -57.8900 hc         1 3ZL       0.045700
     30 H17        -41.4170   -46.7460   -57.9730 hc         1 3ZL       0.045700
     31 H18        -41.3550   -49.3640   -56.3960 h1         1 3ZL       0.059700
     32 H19        -41.0300   -47.7860   -55.7040 h1         1 3ZL       0.059700
     33 H20        -43.4830   -47.6000   -57.0360 hn         1 3ZL       0.488000
     34 H8         -42.0320   -50.8390   -60.8570 hn         1 3ZL       0.381500
     35 H9         -41.4010   -50.7470   -62.3500 hn         1 3ZL       0.381500
@<TRIPOS>BOND
     1     1     2 2   
     2     1    13 1   
     3     1    18 1   
     4     2     3 1   
     5     2    19 1   
     6     3     4 1   
     7     3    16 2   
     8     4     5 2   
     9     4     6 1   
    10     5    20 1   
    11     5    21 1   
    12     6    22 1   
    13     6    23 1   
    14     7     8 1   
    15     7    34 1   
    16     7    35 1   
    17     8     9 1   
    18     8    14 1   
    19     8    24 1   
    20     9    10 1   
    21     9    25 1   
    22     9    26 1   
    23    10    11 1   
    24    10    27 1   
    25    10    28 1   
    26    11    12 1   
    27    11    29 1   
    28    11    30 1   
    29    12    13 1   
    30    12    31 1   
    31    12    32 1   
    32    13    33 1   
    33    14    15 1   
    34    14    17 1   
@<TRIPOS>SUBSTRUCTURE
     1 3ZL         1 TEMP              0 ****  ****    0 ROOT
