@<TRIPOS>MOLECULE
3ZL
   35    34     1     0     0
SMALL
No Charge or Current Charge


@<TRIPOS>ATOM
      1 C1         -43.3870   -48.9110   -55.6030 c2         1 3ZL       0.143000
      2 C2         -43.1850   -48.7290   -54.2790 ce         1 3ZL      -0.497200
      3 C3         -42.3680   -49.5530   -53.3140 c          1 3ZL       0.592500
      4 C4         -42.1840   -49.0130   -51.8660 ce         1 3ZL       0.037800
      5 C5         -42.5890   -47.8100   -51.4070 c2         1 3ZL      -0.414000
      6 N14        -41.5180   -49.8600   -50.9730 nv         1 3ZL      -0.936000
      7 N          -41.3210   -49.5570   -62.1980 n8         1 3ZL      -1.004200
      8 CA         -41.8340   -48.2740   -61.5950 c3         1 3ZL       0.022500
      9 CB         -41.2160   -48.0410   -60.1860 c3         1 3ZL      -0.050400
     10 CG         -41.5950   -49.1120   -59.1320 c3         1 3ZL      -0.080400
     11 CD         -41.0140   -48.8080   -57.7290 c3         1 3ZL      -0.097400
     12 CE         -41.3300   -49.8830   -56.6630 c3         1 3ZL       0.207800
     13 NZ         -42.7680   -49.9180   -56.3340 nu         1 3ZL      -0.786200
     14 C          -41.7280   -46.9760   -62.5140 c          1 3ZL       0.719000
     15 O          -42.6440   -46.7520   -63.2960 o          1 3ZL      -0.730000
     16 O13        -41.8760   -50.6310   -53.6370 o          1 3ZL      -0.577100
     17 O1         -40.7460   -46.2480   -62.4170 o          1 3ZL      -0.730000
     18 H1         -44.0500   -48.2600   -56.1820 h4         1 3ZL       0.161000
     19 H2         -43.7070   -47.8930   -53.8320 ha         1 3ZL       0.182000
     20 H4         -42.4140   -47.5100   -50.3730 ha         1 3ZL       0.164000
     21 H5         -43.0920   -47.0680   -52.0220 ha         1 3ZL       0.164000
     22 H6         -41.2170   -49.5190   -50.0610 hn         1 3ZL       0.448500
     23 H7         -41.1000   -50.7230   -51.3230 hn         1 3ZL       0.448500
     24 H11        -42.9090   -48.4360   -61.4380 h1         1 3ZL      -0.006300
     25 H12        -40.1230   -47.9810   -60.2700 hc         1 3ZL       0.044700
     26 H13        -41.5550   -47.0650   -59.8170 hc         1 3ZL       0.044700
     27 H14        -42.6880   -49.1750   -59.0680 hc         1 3ZL       0.031700
     28 H15        -41.2340   -50.0950   -59.4590 hc         1 3ZL       0.031700
     29 H16        -39.9230   -48.7260   -57.8140 hc         1 3ZL       0.045700
     30 H17        -41.3720   -47.8310   -57.3820 hc         1 3ZL       0.045700
     31 H18        -41.0040   -50.8640   -57.0350 h1         1 3ZL       0.059700
     32 H19        -40.7410   -49.6630   -55.7620 h1         1 3ZL       0.059700
     33 H20        -43.3480   -50.3520   -57.0560 hn         1 3ZL       0.488000
     34 H8         -41.5390   -50.3340   -61.5640 hn         1 3ZL       0.381500
     35 H9         -41.8640   -49.7690   -63.0440 hn         1 3ZL       0.381500
@<TRIPOS>BOND
     1     1     2 2   
     2     1    13 1   
     3     1    18 1   
     4     2     3 1   
     5     2    19 1   
     6     3     4 1   
     7     3    16 2   
     8     4     5 2   
     9     4     6 1   
    10     5    20 1   
    11     5    21 1   
    12     6    22 1   
    13     6    23 1   
    14     7     8 1   
    15     7    34 1   
    16     7    35 1   
    17     8     9 1   
    18     8    14 1   
    19     8    24 1   
    20     9    10 1   
    21     9    25 1   
    22     9    26 1   
    23    10    11 1   
    24    10    27 1   
    25    10    28 1   
    26    11    12 1   
    27    11    29 1   
    28    11    30 1   
    29    12    13 1   
    30    12    31 1   
    31    12    32 1   
    32    13    33 1   
    33    14    15 1   
    34    14    17 1   
@<TRIPOS>SUBSTRUCTURE
     1 3ZL         1 TEMP              0 ****  ****    0 ROOT
