@<TRIPOS>MOLECULE
3ZM
   55    58     1     0     0
SMALL
No Charge or Current Charge


@<TRIPOS>ATOM
      1 C15          4.3650     0.1680     0.3390 ca         1 3ZM      -0.012000
      2 C17          6.7750    -0.2270     0.1450 ca         1 3ZM      -0.098500
      3 C20          4.1570    -0.7200    -0.7410 ca         1 3ZM      -0.096000
      4 C22          3.2440     1.7120     2.0480 cc         1 3ZM      -0.172000
      5 C28         -2.7940     3.9520    -2.7340 c6         1 3ZM      -0.115400
      6 C01         -3.0750    -0.5420     0.1860 cc         1 3ZM       0.420700
      7 N02         -2.2850    -1.5890    -0.0520 nd         1 3ZM      -0.672000
      8 C03         -3.0540    -2.7320    -0.2010 cd         1 3ZM       0.308300
      9 C04         -2.3730    -4.0420    -0.4910 c3         1 3ZM      -0.119400
     10 C05         -4.4110    -2.5430    -0.0650 cc         1 3ZM      -0.239300
     11 S06         -4.7860    -0.8770     0.2720 ss         1 3ZM       0.033600
     12 C07         -5.4990    -3.5700    -0.1760 c3         1 3ZM       0.239900
     13 O08         -5.6960    -4.2030     1.0900 oh         1 3ZM      -0.657000
     14 C09         -2.5610     0.8690     0.4330 c3         1 3ZM       0.083400
     15 N10         -1.0870     0.9120     0.5980 ns         1 3ZM      -0.502900
     16 C12          1.0620     1.4700     1.5090 cd         1 3ZM      -0.244600
     17 N13          1.8660     0.6800     0.6600 na         1 3ZM      -0.086000
     18 C14          3.2220     0.8320     0.9980 cd         1 3ZM      -0.107000
     19 C16          5.6880     0.4060     0.7740 ca         1 3ZM      -0.096000
     20 C18          6.5530    -1.1050    -0.9260 ca         1 3ZM       0.119000
     21 C19          5.2450    -1.3520    -1.3690 ca         1 3ZM      -0.098500
     22 Cl21         7.9130    -1.8970    -1.7120 cl         1 3ZM      -0.199000
     23 C23          1.9310     2.1000     2.3600 cc         1 3ZM      -0.100000
     24 O24         -0.9890     2.3690     2.3480 o          1 3ZM      -0.591100
     25 C25         -3.0810     1.8920    -0.6360 c6         1 3ZM       0.155500
     26 N26         -2.5070     1.5920    -1.9740 n7         1 3ZM      -0.846400
     27 C27         -3.0520     2.4590    -3.0460 c6         1 3ZM       0.149800
     28 C29         -3.3530     4.3340    -1.3420 c6         1 3ZM      -0.075400
     29 C30         -2.8020     3.3750    -0.2600 c6         1 3ZM      -0.106400
     30 H171         7.7890    -0.0360     0.4880 ha         1 3ZM       0.131000
     31 H201         3.1540    -0.9270    -1.1030 ha         1 3ZM       0.119000
     32 H221         4.1200     2.0720     2.5780 ha         1 3ZM       0.137000
     33 H282        -1.7140     4.1540    -2.7680 hc         1 3ZM       0.044200
     34 H281        -3.2540     4.5790    -3.5090 hc         1 3ZM       0.044200
     35 H043        -1.2820    -3.9520    -0.4360 hc         1 3ZM       0.048700
     36 H042        -2.6810    -4.8080     0.2300 hc         1 3ZM       0.048700
     37 H041        -2.6300    -4.3990    -1.4950 hc         1 3ZM       0.048700
     38 H072        -6.4250    -3.0810    -0.5080 h1         1 3ZM       0.034700
     39 H071        -5.2240    -4.3120    -0.9380 h1         1 3ZM       0.034700
     40 H081        -6.4240    -4.8520     0.9690 ho         1 3ZM       0.449000
     41 H091        -3.0080     1.1740     1.3880 h1         1 3ZM       0.093700
     42 H101        -0.5420     0.2870     0.0230 hn         1 3ZM       0.333500
     43 H131         1.5290     0.0840    -0.0880 hn         1 3ZM       0.348000
     44 H161         5.8850     1.0820     1.6010 ha         1 3ZM       0.119000
     45 H191         5.0750    -2.0330    -2.1990 ha         1 3ZM       0.131000
     46 H231         1.6650     2.7930     3.1540 ha         1 3ZM       0.150000
     47 H251        -4.1740     1.7710    -0.6940 h1         1 3ZM       0.061700
     48 H261        -1.4930     1.7430    -1.9250 hn         1 3ZM       0.406000
     49 H272        -4.1350     2.2860    -3.1440 h1         1 3ZM       0.051700
     50 H271        -2.5870     2.1960    -4.0080 h1         1 3ZM       0.051700
     51 H291        -3.0870     5.3720    -1.0990 hc         1 3ZM       0.043200
     52 H292        -4.4510     4.2860    -1.3570 hc         1 3ZM       0.043200
     53 H301        -3.2600     3.6090     0.7110 hc         1 3ZM       0.057200
     54 H302        -1.7230     3.5430    -0.1470 hc         1 3ZM       0.057200
     55 C11         -0.4150     1.6450     1.5470 c          1 3ZM       0.638700
@<TRIPOS>BOND
     1     1     3 ar  
     2     1    18 1   
     3     1    19 ar  
     4     2    19 ar  
     5     2    20 ar  
     6     2    30 1   
     7     3    21 ar  
     8     3    31 1   
     9     4    18 2   
    10     4    23 1   
    11     4    32 1   
    12     5    27 1   
    13     5    28 1   
    14     5    33 1   
    15     5    34 1   
    16     6     7 2   
    17     6    11 1   
    18     6    14 1   
    19     7     8 1   
    20     8     9 1   
    21     8    10 2   
    22     9    35 1   
    23     9    36 1   
    24     9    37 1   
    25    10    11 1   
    26    10    12 1   
    27    12    13 1   
    28    12    38 1   
    29    12    39 1   
    30    13    40 1   
    31    14    15 1   
    32    14    25 1   
    33    14    41 1   
    34    15    42 1   
    35    15    55 1   
    36    16    17 1   
    37    16    23 2   
    38    16    55 1   
    39    17    18 1   
    40    17    43 1   
    41    19    44 1   
    42    20    21 ar  
    43    20    22 1   
    44    21    45 1   
    45    23    46 1   
    46    24    55 2   
    47    25    26 1   
    48    25    29 1   
    49    25    47 1   
    50    26    27 1   
    51    26    48 1   
    52    27    49 1   
    53    27    50 1   
    54    28    29 1   
    55    28    51 1   
    56    28    52 1   
    57    29    53 1   
    58    29    54 1   
@<TRIPOS>SUBSTRUCTURE
     1 3ZM         1 TEMP              0 ****  ****    0 ROOT
