@<TRIPOS>MOLECULE
3ZM
   55    58     1     0     0
SMALL
bcc


@<TRIPOS>ATOM
      1 C15          4.1340     0.2440     0.2830 ca         1 3ZM      -0.012000
      2 C17          6.4720     0.1210    -0.3360 ca         1 3ZM      -0.116500
      3 C20          3.8530    -0.7310    -0.6760 ca         1 3ZM      -0.114000
      4 C22          3.1780     1.4260     2.3620 cc         1 3ZM      -0.190000
      5 C28         -2.6030     3.6690    -2.7830 c6         1 3ZM      -0.115400
      6 C01         -2.9870    -0.4880     0.3090 cc         1 3ZM       0.420700
      7 N02         -2.1970    -1.4950     0.1570 nd         1 3ZM      -0.672000
      8 C03         -2.8830    -2.6650    -0.0640 cd         1 3ZM       0.373600
      9 C04         -2.1080    -3.9220    -0.2730 c3         1 3ZM      -0.119400
     10 C05         -4.2360    -2.5290    -0.0790 cc         1 3ZM      -0.159700
     11 S06         -4.6600    -0.8780     0.1990 ss         1 3ZM      -0.111300
     12 C07         -5.3100    -3.5310    -0.3290 c3         1 3ZM       0.216700
     13 O08         -6.3940    -3.2340     0.5190 oh         1 3ZM      -0.594800
     14 C09         -2.5170     0.9160     0.5720 c3         1 3ZM       0.083400
     15 N10         -1.0800     0.8870     0.7240 ns         1 3ZM      -0.569900
     16 C12          1.0230     1.4130     1.7340 cd         1 3ZM      -0.193900
     17 N13          1.7770     0.8090     0.7670 na         1 3ZM      -0.137100
     18 C14          3.0890     0.8170     1.1220 cd         1 3ZM      -0.056300
     19 C16          5.4580     0.6590     0.4380 ca         1 3ZM      -0.114000
     20 C18          6.1620    -0.8410    -1.2860 ca         1 3ZM       0.027400
     21 C19          4.8570    -1.2710    -1.4630 ca         1 3ZM      -0.116500
     22 CL21         7.4240    -1.5130    -2.2640 cl         1 3ZM      -0.107400
     23 C23          1.8800     1.8030     2.7430 cc         1 3ZM      -0.118000
     24 O24         -0.9950     2.3490     2.4610 o          1 3ZM      -0.591100
     25 C25         -2.9740     1.8520    -0.5600 c6         1 3ZM       0.155500
     26 N26         -2.4580     1.3680    -1.8280 n7         1 3ZM      -0.791200
     27 C27         -2.9120     2.1830    -2.9470 c6         1 3ZM       0.149800
     28 C29         -3.1440     4.1820    -1.4520 c6         1 3ZM      -0.075400
     29 C30         -2.6440     3.3200    -0.2950 c6         1 3ZM      -0.106400
     30 H171         7.4910     0.4580    -0.2040 ha         1 3ZM       0.149000
     31 H201         2.8450    -1.1030    -0.8110 ha         1 3ZM       0.137000
     32 H221         4.0820     1.5570     2.9360 ha         1 3ZM       0.155000
     33 H282        -1.5180     3.8160    -2.8220 hc         1 3ZM       0.044200
     34 H281        -3.0280     4.2340    -3.6170 hc         1 3ZM       0.044200
     35 H043        -1.3500    -4.0380     0.5020 hc         1 3ZM       0.048700
     36 H042        -2.7470    -4.8040    -0.2560 hc         1 3ZM       0.048700
     37 H041        -1.5920    -3.9070    -1.2340 hc         1 3ZM       0.048700
     38 H072        -5.6090    -3.4900    -1.3830 h1         1 3ZM       0.034700
     39 H071        -4.9080    -4.5360    -0.1540 h1         1 3ZM       0.034700
     40 H081        -7.1540    -3.7440     0.2220 ho         1 3ZM       0.410000
     41 H091        -2.9650     1.2720     1.5040 h1         1 3ZM       0.093700
     42 H101        -0.6320     0.0690     0.3360 hn         1 3ZM       0.333500
     43 H131         1.4440     0.5440    -0.1460 hn         1 3ZM       0.297700
     44 H161         5.7040     1.4230     1.1640 ha         1 3ZM       0.137000
     45 H191         4.6210    -2.0270    -2.1990 ha         1 3ZM       0.149000
     46 H231         1.5880     2.2860     3.6610 ha         1 3ZM       0.168000
     47 H251        -4.0690     1.7690    -0.6080 h1         1 3ZM       0.061700
     48 H261        -1.4440     1.3970    -1.8000 hn         1 3ZM       0.350800
     49 H272        -3.9940     2.0460    -3.0490 h1         1 3ZM       0.051700
     50 H271        -2.4600     1.7940    -3.8620 h1         1 3ZM       0.051700
     51 H291        -2.8600     5.2250    -1.2970 hc         1 3ZM       0.043200
     52 H292        -4.2390     4.1570    -1.4730 hc         1 3ZM       0.043200
     53 H301        -3.0950     3.6440     0.6470 hc         1 3ZM       0.057200
     54 H302        -1.5610     3.4440    -0.1910 hc         1 3ZM       0.057200
     55 C11         -0.4320     1.5920     1.6830 c          1 3ZM       0.705700
@<TRIPOS>BOND
     1     1     3 ar  
     2     1    18 1   
     3     1    19 ar  
     4     2    19 ar  
     5     2    20 ar  
     6     2    30 1   
     7     3    21 ar  
     8     3    31 1   
     9     4    18 2   
    10     4    23 1   
    11     4    32 1   
    12     5    27 1   
    13     5    28 1   
    14     5    33 1   
    15     5    34 1   
    16     6     7 2   
    17     6    11 1   
    18     6    14 1   
    19     7     8 1   
    20     8     9 1   
    21     8    10 2   
    22     9    35 1   
    23     9    36 1   
    24     9    37 1   
    25    10    11 1   
    26    10    12 1   
    27    12    13 1   
    28    12    38 1   
    29    12    39 1   
    30    13    40 1   
    31    14    15 1   
    32    14    25 1   
    33    14    41 1   
    34    15    42 1   
    35    15    55 1   
    36    16    17 1   
    37    16    23 2   
    38    16    55 1   
    39    17    18 1   
    40    17    43 1   
    41    19    44 1   
    42    20    21 ar  
    43    20    22 1   
    44    21    45 1   
    45    23    46 1   
    46    24    55 2   
    47    25    26 1   
    48    25    29 1   
    49    25    47 1   
    50    26    27 1   
    51    26    48 1   
    52    27    49 1   
    53    27    50 1   
    54    28    29 1   
    55    28    51 1   
    56    28    52 1   
    57    29    53 1   
    58    29    54 1   
@<TRIPOS>SUBSTRUCTURE
     1 3ZM         1 TEMP              0 ****  ****    0 ROOT
