@<TRIPOS>MOLECULE
3ZN
   76    78     1     0     0
SMALL
No Charge or Current Charge


@<TRIPOS>ATOM
      1 C2           1.8220     0.0900     2.5950 c5         1 3ZN       0.155800
      2 C3           2.0630     0.2460     1.0700 c5         1 3ZN      -0.082700
      3 C11         -1.1220    -1.7610    -1.5560 c3         1 3ZN      -0.107100
      4 C12         -1.6200     0.5470     0.0900 c          1 3ZN       0.619700
      5 C13         -2.8580    -0.1610     0.5970 ca         1 3ZN      -0.132600
      6 C14         -2.7980    -1.0160     1.7150 ca         1 3ZN      -0.081000
      7 C15         -5.1950    -1.4550     1.5500 ca         1 3ZN       0.125100
      8 C16         -5.2740    -0.5770     0.4430 ca         1 3ZN       0.112100
      9 C17         -3.9510    -1.6640     2.1860 ca         1 3ZN      -0.182000
     10 C18         -4.1060     0.0710    -0.0210 ca         1 3ZN      -0.140000
     11 C21         -6.3660    -2.9870     3.1030 c3         1 3ZN       0.144900
     12 C23         -6.6850     0.4890    -1.2890 c3         1 3ZN       0.162600
     13 C24         -8.1740     0.4520    -1.6750 c3         1 3ZN      -0.086400
     14 C25         -8.4920     1.3490    -2.8830 c3         1 3ZN       0.161600
     15 C27        -10.3560     2.0240    -4.2640 c3         1 3ZN       0.146900
     16 C28          5.6460     1.1050     1.1590 c          1 3ZN       0.640100
     17 N1           1.8670     1.4850     3.0820 n7         1 3ZN      -0.856400
     18 C4           3.2730     1.2280     1.0830 c5         1 3ZN       0.185300
     19 C5           3.0270     2.0980     2.3730 c5         1 3ZN       0.128800
     20 C6           0.8320     0.7940     0.2940 c3         1 3ZN       0.095000
     21 O7           4.4700     0.4190     1.2690 os         1 3ZN      -0.468100
     22 N8          -0.3660    -0.0940     0.2570 n          1 3ZN      -0.409800
     23 C9          -0.1380    -1.4200    -0.4090 c3         1 3ZN       0.123700
     24 C10         -0.0240    -2.5980     0.5830 c3         1 3ZN      -0.107100
     25 O19         -1.6980     1.6850    -0.3620 o          1 3ZN      -0.589100
     26 O20         -6.3520    -2.0790     1.9880 os         1 3ZN      -0.318100
     27 O22         -6.5070    -0.3790    -0.1580 os         1 3ZN      -0.326100
     28 O26         -9.8980     1.2370    -3.1520 os         1 3ZN      -0.451000
     29 N29          6.6730     0.2380     1.3850 ns         1 3ZN      -0.501900
     30 O30          5.7730     2.2920     0.9020 o          1 3ZN      -0.543000
     31 C31          8.0890     0.5930     1.3290 c3         1 3ZN       0.162300
     32 C32          8.6780     0.3040    -0.0450 ca         1 3ZN      -0.119300
     33 C33          8.6200     1.2780    -1.0610 ca         1 3ZN      -0.095500
     34 C34          9.7630    -0.2320    -2.5920 ca         1 3ZN      -0.104000
     35 C35          9.8220    -1.2070    -1.5830 ca         1 3ZN      -0.112000
     36 C36          9.1610     1.0110    -2.3310 ca         1 3ZN      -0.112000
     37 C37          9.2810    -0.9410    -0.3130 ca         1 3ZN      -0.095500
     38 H1           0.8620    -0.3910     2.8260 h1         1 3ZN       0.041700
     39 H2           2.6200    -0.5090     3.0590 h1         1 3ZN       0.041700
     40 H3           2.3490    -0.7070     0.6140 hc         1 3ZN       0.068700
     41 H4          -1.1950    -0.9290    -2.2670 hc         1 3ZN       0.043533
     42 H5          -0.7670    -2.6400    -2.1080 hc         1 3ZN       0.043533
     43 H6          -2.1240    -1.9930    -1.1790 hc         1 3ZN       0.043533
     44 H7          -1.8570    -1.1630     2.2410 ha         1 3ZN       0.118000
     45 H8          -3.8600    -2.3170     3.0490 ha         1 3ZN       0.121000
     46 H9          -4.1460     0.7470    -0.8700 ha         1 3ZN       0.129000
     47 H10         -5.7090    -3.8460     2.9150 h1         1 3ZN       0.040700
     48 H11         -6.0350    -2.4830     4.0210 h1         1 3ZN       0.040700
     49 H12         -7.3810    -3.3660     3.2720 h1         1 3ZN       0.040700
     50 H13         -6.0780     0.1490    -2.1380 h1         1 3ZN       0.033700
     51 H14         -6.3970     1.5180    -1.0370 h1         1 3ZN       0.033700
     52 H15         -8.4600    -0.5810    -1.9070 hc         1 3ZN       0.069700
     53 H16         -8.7760     0.7760    -0.8170 hc         1 3ZN       0.069700
     54 H17         -8.2220     2.3880    -2.6510 h1         1 3ZN       0.020200
     55 H18         -7.9030     1.0210    -3.7500 h1         1 3ZN       0.020200
     56 H19         -9.8470     1.7250    -5.1900 h1         1 3ZN       0.029033
     57 H20        -11.4350     1.8890    -4.4080 h1         1 3ZN       0.029033
     58 H21        -10.1650     3.0920    -4.0910 h1         1 3ZN       0.029033
     59 H22          2.0010     1.5140     4.1020 hn         1 3ZN       0.421000
     60 H24          3.3510     1.8170     0.1580 h1         1 3ZN       0.074700
     61 H25          2.8130     3.1440     2.1150 h1         1 3ZN       0.054200
     62 H26          3.9150     2.0980     3.0210 h1         1 3ZN       0.054200
     63 H27          0.5500     1.7560     0.7440 h1         1 3ZN       0.068200
     64 H28          1.1360     1.0040    -0.7400 h1         1 3ZN       0.068200
     65 H29          0.8400    -1.3560    -0.9040 h1         1 3ZN       0.045700
     66 H30         -1.0020    -2.8870     0.9810 hc         1 3ZN       0.043533
     67 H31          0.3970    -3.4760     0.0780 hc         1 3ZN       0.043533
     68 H32          0.6340    -2.3490     1.4220 hc         1 3ZN       0.043533
     69 H33          6.4120    -0.7190     1.5770 hn         1 3ZN       0.326500
     70 H34          8.2140     1.6570     1.5730 h1         1 3ZN       0.065700
     71 H35          8.6270     0.0150     2.0920 h1         1 3ZN       0.065700
     72 H36          8.1530     2.2410    -0.8670 ha         1 3ZN       0.116500
     73 H37         10.1810    -0.4380    -3.5750 ha         1 3ZN       0.113000
     74 H38         10.2870    -2.1700    -1.7850 ha         1 3ZN       0.113500
     75 H39          9.1130     1.7670    -3.1120 ha         1 3ZN       0.113500
     76 H40          9.3300    -1.7040     0.4620 ha         1 3ZN       0.116500
@<TRIPOS>BOND
     1     1     2 1   
     2     1    17 1   
     3     1    38 1   
     4     1    39 1   
     5     2    18 1   
     6     2    20 1   
     7     2    40 1   
     8     3    23 1   
     9     3    41 1   
    10     3    42 1   
    11     3    43 1   
    12     4     5 1   
    13     4    22 1   
    14     4    25 2   
    15     5     6 ar  
    16     5    10 ar  
    17     6     9 ar  
    18     6    44 1   
    19     7     8 ar  
    20     7     9 ar  
    21     7    26 1   
    22     8    10 ar  
    23     8    27 1   
    24     9    45 1   
    25    10    46 1   
    26    11    26 1   
    27    11    47 1   
    28    11    48 1   
    29    11    49 1   
    30    12    13 1   
    31    12    27 1   
    32    12    50 1   
    33    12    51 1   
    34    13    14 1   
    35    13    52 1   
    36    13    53 1   
    37    14    28 1   
    38    14    54 1   
    39    14    55 1   
    40    15    28 1   
    41    15    56 1   
    42    15    57 1   
    43    15    58 1   
    44    16    21 1   
    45    16    29 1   
    46    16    30 2   
    47    17    19 1   
    48    17    59 1   
    49    18    19 1   
    50    18    21 1   
    51    18    60 1   
    52    19    61 1   
    53    19    62 1   
    54    20    22 1   
    55    20    63 1   
    56    20    64 1   
    57    22    23 1   
    58    23    24 1   
    59    23    65 1   
    60    24    66 1   
    61    24    67 1   
    62    24    68 1   
    63    29    31 1   
    64    29    69 1   
    65    31    32 1   
    66    31    70 1   
    67    31    71 1   
    68    32    33 ar  
    69    32    37 ar  
    70    33    36 ar  
    71    33    72 1   
    72    34    35 ar  
    73    34    36 ar  
    74    34    73 1   
    75    35    37 ar  
    76    35    74 1   
    77    36    75 1   
    78    37    76 1   
@<TRIPOS>SUBSTRUCTURE
     1 3ZN         1 TEMP              0 ****  ****    0 ROOT
