@<TRIPOS>MOLECULE
3ZN
   76    78     1     0     0
SMALL
abcg2


@<TRIPOS>ATOM
      1 C2           1.4810     0.3280     3.1050 c5         1 3ZN       0.155800
      2 C3           1.8930     0.2850     1.6350 c5         1 3ZN      -0.082700
      3 C11         -1.1980    -1.5440    -1.0730 c3         1 3ZN      -0.107100
      4 C12         -1.5750     0.6690     0.9870 c          1 3ZN       0.619700
      5 C13         -2.7980    -0.1680     1.1690 ca         1 3ZN      -0.132600
      6 C14         -2.9130    -1.0400     2.2310 ca         1 3ZN      -0.081000
      7 C15         -5.1860    -1.5480     1.6070 ca         1 3ZN       0.125100
      8 C16         -5.0770    -0.6430     0.5270 ca         1 3ZN       0.112100
      9 C17         -4.1070    -1.7250     2.4550 ca         1 3ZN      -0.182000
     10 C18         -3.9010     0.0560     0.3380 ca         1 3ZN      -0.140000
     11 C21         -6.5400    -3.0900     2.7830 c3         1 3ZN       0.144900
     12 C23         -6.1550     0.3850    -1.3230 c3         1 3ZN       0.162600
     13 C24         -7.4840     0.2780    -2.0430 c3         1 3ZN      -0.086400
     14 C25         -7.5610     1.2720    -3.1860 c3         1 3ZN       0.161600
     15 C27         -8.9430     2.0020    -4.9220 c3         1 3ZN       0.146900
     16 C28          5.4520     0.9710     1.1500 c          1 3ZN       0.640100
     17 N1           1.8200     1.6900     3.4710 n7         1 3ZN      -0.856400
     18 C4           3.1390     1.1890     1.5900 c5         1 3ZN       0.185300
     19 C5           3.1630     1.8970     2.9570 c5         1 3ZN       0.128800
     20 C6           0.8150     0.8570     0.7140 c3         1 3ZN       0.095000
     21 O7           4.2850     0.3610     1.3840 os         1 3ZN      -0.468100
     22 N8          -0.4020     0.0560     0.7040 n          1 3ZN      -0.409800
     23 C9          -0.2480    -1.2800     0.0910 c3         1 3ZN       0.123700
     24 C10         -0.2250    -2.4450     1.0760 c3         1 3ZN      -0.107100
     25 O19         -1.6770     1.8810     1.1400 o          1 3ZN      -0.589100
     26 O20         -6.3700    -2.1710     1.7220 os         1 3ZN      -0.318100
     27 O22         -6.1730    -0.5340    -0.2450 os         1 3ZN      -0.326100
     28 O26         -8.7900     1.1130    -3.8460 os         1 3ZN      -0.451000
     29 N29          6.4330     0.0670     0.9790 ns         1 3ZN      -0.501900
     30 O30          5.5890     2.1770     1.1040 o          1 3ZN      -0.543000
     31 C31          7.7980     0.4230     0.6710 c3         1 3ZN       0.162300
     32 C32          8.1520     0.2380    -0.7850 ca         1 3ZN      -0.119300
     33 C33          7.3960     0.8440    -1.7870 ca         1 3ZN      -0.095500
     34 C34          8.8330    -0.0940    -3.4760 ca         1 3ZN      -0.104000
     35 C35          9.5930    -0.6980    -2.4860 ca         1 3ZN      -0.112000
     36 C36          7.7320     0.6780    -3.1220 ca         1 3ZN      -0.112000
     37 C37          9.2500    -0.5340    -1.1490 ca         1 3ZN      -0.095500
     38 H1           0.4190     0.1240     3.2560 h1         1 3ZN       0.041700
     39 H2           2.0440    -0.4300     3.6700 h1         1 3ZN       0.041700
     40 H3           2.1550    -0.7260     1.3180 hc         1 3ZN       0.068700
     41 H4          -1.2400    -0.6930    -1.7540 hc         1 3ZN       0.043533
     42 H5          -0.8290    -2.4010    -1.6360 hc         1 3ZN       0.043533
     43 H6          -2.2110    -1.7770    -0.7500 hc         1 3ZN       0.043533
     44 H7          -2.0870    -1.1930     2.9130 ha         1 3ZN       0.118000
     45 H8          -4.1690    -2.3950     3.3010 ha         1 3ZN       0.121000
     46 H9          -3.8090     0.7670    -0.4720 ha         1 3ZN       0.129000
     47 H10         -5.8270    -3.9170     2.7240 h1         1 3ZN       0.040700
     48 H11         -6.4430    -2.6090     3.7590 h1         1 3ZN       0.040700
     49 H12         -7.5470    -3.4890     2.6870 h1         1 3ZN       0.040700
     50 H13         -5.3320     0.1540    -2.0110 h1         1 3ZN       0.033700
     51 H14         -5.9980     1.4040    -0.9510 h1         1 3ZN       0.033700
     52 H15         -7.6070    -0.7370    -2.4320 hc         1 3ZN       0.069700
     53 H16         -8.2990     0.4650    -1.3390 hc         1 3ZN       0.069700
     54 H17         -7.4570     2.2970    -2.8000 h1         1 3ZN       0.020200
     55 H18         -6.7230     1.1140    -3.8820 h1         1 3ZN       0.020200
     56 H19         -8.1660     1.8640    -5.6830 h1         1 3ZN       0.029033
     57 H20         -9.9120     1.8130    -5.3820 h1         1 3ZN       0.029033
     58 H21         -8.9120     3.0490    -4.5980 h1         1 3ZN       0.029033
     59 H22          1.7740     1.8440     4.4700 hn         1 3ZN       0.421000
     60 H24          3.0690     1.9080     0.7690 h1         1 3ZN       0.074700
     61 H25          3.3990     2.9580     2.8750 h1         1 3ZN       0.054200
     62 H26          3.9370     1.4290     3.5830 h1         1 3ZN       0.054200
     63 H27          0.5670     1.8670     1.0320 h1         1 3ZN       0.068200
     64 H28          1.2100     0.9240    -0.3060 h1         1 3ZN       0.068200
     65 H29          0.7500    -1.2330    -0.3510 h1         1 3ZN       0.045700
     66 H30         -1.2200    -2.7050     1.4280 hc         1 3ZN       0.043533
     67 H31          0.1920    -3.3220     0.5790 hc         1 3ZN       0.043533
     68 H32          0.3980    -2.2300     1.9440 hc         1 3ZN       0.043533
     69 H33          6.1930    -0.9120     0.9830 hn         1 3ZN       0.326500
     70 H34          7.9560     1.4590     0.9690 h1         1 3ZN       0.065700
     71 H35          8.4630    -0.1830     1.2890 h1         1 3ZN       0.065700
     72 H36          6.5390     1.4530    -1.5270 ha         1 3ZN       0.116500
     73 H37          9.0960    -0.2220    -4.5190 ha         1 3ZN       0.113000
     74 H38         10.4510    -1.3030    -2.7500 ha         1 3ZN       0.113500
     75 H39          7.1350     1.1540    -3.8890 ha         1 3ZN       0.113500
     76 H40          9.8430    -1.0160    -0.3800 ha         1 3ZN       0.116500
@<TRIPOS>BOND
     1     1     2 1   
     2     1    17 1   
     3     1    38 1   
     4     1    39 1   
     5     2    18 1   
     6     2    20 1   
     7     2    40 1   
     8     3    23 1   
     9     3    41 1   
    10     3    42 1   
    11     3    43 1   
    12     4     5 1   
    13     4    22 1   
    14     4    25 2   
    15     5     6 ar  
    16     5    10 ar  
    17     6     9 ar  
    18     6    44 1   
    19     7     8 ar  
    20     7     9 ar  
    21     7    26 1   
    22     8    10 ar  
    23     8    27 1   
    24     9    45 1   
    25    10    46 1   
    26    11    26 1   
    27    11    47 1   
    28    11    48 1   
    29    11    49 1   
    30    12    13 1   
    31    12    27 1   
    32    12    50 1   
    33    12    51 1   
    34    13    14 1   
    35    13    52 1   
    36    13    53 1   
    37    14    28 1   
    38    14    54 1   
    39    14    55 1   
    40    15    28 1   
    41    15    56 1   
    42    15    57 1   
    43    15    58 1   
    44    16    21 1   
    45    16    29 1   
    46    16    30 2   
    47    17    19 1   
    48    17    59 1   
    49    18    19 1   
    50    18    21 1   
    51    18    60 1   
    52    19    61 1   
    53    19    62 1   
    54    20    22 1   
    55    20    63 1   
    56    20    64 1   
    57    22    23 1   
    58    23    24 1   
    59    23    65 1   
    60    24    66 1   
    61    24    67 1   
    62    24    68 1   
    63    29    31 1   
    64    29    69 1   
    65    31    32 1   
    66    31    70 1   
    67    31    71 1   
    68    32    33 ar  
    69    32    37 ar  
    70    33    36 ar  
    71    33    72 1   
    72    34    35 ar  
    73    34    36 ar  
    74    34    73 1   
    75    35    37 ar  
    76    35    74 1   
    77    36    75 1   
    78    37    76 1   
@<TRIPOS>SUBSTRUCTURE
     1 3ZN         1 TEMP              0 ****  ****    0 ROOT
