@<TRIPOS>MOLECULE
3ZQ
   20    20     1     0     0
SMALL
bcc


@<TRIPOS>ATOM
      1 C4           0.6290     1.4370     0.1060 c6         1 3ZQ      -0.116400
      2 C5          -0.6280     0.6860    -0.3260 c6         1 3ZQ       0.152100
      3 C6          -0.6280    -0.7200     0.2530 c6         1 3ZQ       0.152100
      4 C1           0.6370    -1.4640    -0.1650 c6         1 3ZQ      -0.116400
      5 C2           1.9000    -0.7220     0.2550 c6         1 3ZQ      -0.071400
      6 C3           1.9010     0.6990    -0.2950 c6         1 3ZQ      -0.071400
      7 O7          -1.7950    -1.3790    -0.1920 oh         1 3ZQ      -0.580800
      8 O8          -1.8030     1.3410     0.1030 oh         1 3ZQ      -0.580800
      9 H1           0.6180     2.4400    -0.3300 hc         1 3ZQ       0.046700
     10 H2           0.6080     1.5660     1.1940 hc         1 3ZQ       0.046700
     11 H3          -0.6160     0.5970    -1.4250 h1         1 3ZQ       0.039700
     12 H4          -0.6310    -0.6300     1.3520 h1         1 3ZQ       0.039700
     13 H5           0.6250    -2.4690     0.2680 hc         1 3ZQ       0.046700
     14 H6           0.6310    -1.5910    -1.2540 hc         1 3ZQ       0.046700
     15 H7           1.9640    -0.6910     1.3480 hc         1 3ZQ       0.042700
     16 H8           2.7820    -1.2650    -0.0910 hc         1 3ZQ       0.042700
     17 H9           1.9810     0.6680    -1.3870 hc         1 3ZQ       0.042700
     18 H10          2.7750     1.2470     0.0630 hc         1 3ZQ       0.042700
     19 H11         -1.7590    -2.2870     0.1260 ho         1 3ZQ       0.398500
     20 H12         -1.7650     2.2500    -0.2110 ho         1 3ZQ       0.398500
@<TRIPOS>BOND
     1     1     2 1   
     2     1     6 1   
     3     1     9 1   
     4     1    10 1   
     5     2     3 1   
     6     2     8 1   
     7     2    11 1   
     8     3     4 1   
     9     3     7 1   
    10     3    12 1   
    11     4     5 1   
    12     4    13 1   
    13     4    14 1   
    14     5     6 1   
    15     5    15 1   
    16     5    16 1   
    17     6    17 1   
    18     6    18 1   
    19     7    19 1   
    20     8    20 1   
@<TRIPOS>SUBSTRUCTURE
     1 3ZQ         1 TEMP              0 ****  ****    0 ROOT
