@<TRIPOS>MOLECULE
3ZQ
   20    20     1     0     0
SMALL
No Charge or Current Charge


@<TRIPOS>ATOM
      1 C4           0.6330     1.4720     0.1280 c6         1 3ZQ      -0.116400
      2 C5          -0.6520     0.7200    -0.3110 c6         1 3ZQ       0.175300
      3 C6          -0.6520    -0.7530     0.2370 c6         1 3ZQ       0.175300
      4 C1           0.6410    -1.5000    -0.1850 c6         1 3ZQ      -0.116400
      5 C2           1.9120    -0.7330     0.2570 c6         1 3ZQ      -0.071400
      6 C3           1.9120     0.7110    -0.2980 c6         1 3ZQ      -0.071400
      7 O7          -1.7920    -1.4900    -0.2360 oh         1 3ZQ      -0.643000
      8 O8          -1.8010     1.4530     0.1470 oh         1 3ZQ      -0.643000
      9 H1           0.6450     2.4800    -0.3100 hc         1 3ZQ       0.046700
     10 H2           0.6320     1.6050     1.2190 hc         1 3ZQ       0.046700
     11 H3          -0.6590     0.6710    -1.4110 h1         1 3ZQ       0.039700
     12 H4          -0.6740    -0.7040     1.3370 h1         1 3ZQ       0.039700
     13 H5           0.6520    -2.5080     0.2520 hc         1 3ZQ       0.046700
     14 H6           0.6550    -1.6320    -1.2760 hc         1 3ZQ       0.046700
     15 H7           1.9690    -0.7100     1.3540 hc         1 3ZQ       0.042700
     16 H8           2.8080    -1.2660    -0.0900 hc         1 3ZQ       0.042700
     17 H9           1.9840     0.6880    -1.3940 hc         1 3ZQ       0.042700
     18 H10          2.8020     1.2470     0.0610 hc         1 3ZQ       0.042700
     19 H11         -1.7900    -2.3470     0.2440 ho         1 3ZQ       0.437500
     20 H12         -1.7960     2.3090    -0.3330 ho         1 3ZQ       0.437500
@<TRIPOS>BOND
     1     1     2 1   
     2     1     6 1   
     3     1     9 1   
     4     1    10 1   
     5     2     3 1   
     6     2     8 1   
     7     2    11 1   
     8     3     4 1   
     9     3     7 1   
    10     3    12 1   
    11     4     5 1   
    12     4    13 1   
    13     4    14 1   
    14     5     6 1   
    15     5    15 1   
    16     5    16 1   
    17     6    17 1   
    18     6    18 1   
    19     7    19 1   
    20     8    20 1   
@<TRIPOS>SUBSTRUCTURE
     1 3ZQ         1 TEMP              0 ****  ****    0 ROOT
