@<TRIPOS>MOLECULE
3ZS
   14    15     1     0     0
SMALL
No Charge or Current Charge


@<TRIPOS>ATOM
      1 C01          0.7880    -1.2130     0.2300 c5         1 3ZS      -0.076900
      2 C02          1.5410     0.0070    -0.3780 c5         1 3ZS      -0.078400
      3 C03          0.7720     1.2100     0.2450 c5         1 3ZS      -0.076900
      4 C04         -0.6940     0.7390     0.2360 cx         1 3ZS       0.074800
      5 C05         -0.6840    -0.7610     0.2270 cx         1 3ZS       0.074800
      6 O06         -1.1480    -0.0070    -0.9190 op         1 3ZS      -0.437000
      7 H1           0.9450    -2.1300    -0.3480 hc         1 3ZS       0.055200
      8 H2           1.1290    -1.4160     1.2520 hc         1 3ZS       0.055200
      9 H3           2.6080     0.0120    -0.1240 hc         1 3ZS       0.051200
     10 H4           1.4710     0.0130    -1.4720 hc         1 3ZS       0.051200
     11 H5           1.1110     1.4060     1.2690 hc         1 3ZS       0.055200
     12 H6           0.9180     2.1360    -0.3230 hc         1 3ZS       0.055200
     13 H7          -1.4710     1.2700     0.7880 h1         1 3ZS       0.098700
     14 H8          -1.4550    -1.3070     0.7730 h1         1 3ZS       0.098700
@<TRIPOS>BOND
     1     1     2 1   
     2     1     5 1   
     3     1     7 1   
     4     1     8 1   
     5     2     3 1   
     6     2     9 1   
     7     2    10 1   
     8     3     4 1   
     9     3    11 1   
    10     3    12 1   
    11     4     5 1   
    12     4     6 1   
    13     4    13 1   
    14     5     6 1   
    15     5    14 1   
@<TRIPOS>SUBSTRUCTURE
     1 3ZS         1 TEMP              0 ****  ****    0 ROOT
