@<TRIPOS>MOLECULE
3ZS
   14    15     1     0     0
SMALL
bcc


@<TRIPOS>ATOM
      1 C01          0.7640    -1.2250     0.1790 c5         1 3ZS      -0.076900
      2 C02          1.5400     0.0070    -0.3190 c5         1 3ZS      -0.078400
      3 C03          0.7490     1.2220     0.1940 c5         1 3ZS      -0.076900
      4 C04         -0.6670     0.7180     0.2990 cx         1 3ZS       0.051600
      5 C05         -0.6580    -0.7400     0.2910 cx         1 3ZS       0.051600
      6 O06         -1.1030    -0.0070    -0.8480 op         1 3ZS      -0.390600
      7 H1           0.8740    -2.0890    -0.4790 hc         1 3ZS       0.055200
      8 H2           1.1000    -1.5270     1.1740 hc         1 3ZS       0.055200
      9 H3           2.5720     0.0110     0.0310 hc         1 3ZS       0.051200
     10 H4           1.5760     0.0130    -1.4090 hc         1 3ZS       0.051200
     11 H5           1.0810     1.5170     1.1920 hc         1 3ZS       0.055200
     12 H6           0.8470     2.0950    -0.4540 hc         1 3ZS       0.055200
     13 H7          -1.4290     1.3010     0.8110 h1         1 3ZS       0.098700
     14 H8          -1.4130    -1.3370     0.7950 h1         1 3ZS       0.098700
@<TRIPOS>BOND
     1     1     2 1   
     2     1     5 1   
     3     1     7 1   
     4     1     8 1   
     5     2     3 1   
     6     2     9 1   
     7     2    10 1   
     8     3     4 1   
     9     3    11 1   
    10     3    12 1   
    11     4     5 1   
    12     4     6 1   
    13     4    13 1   
    14     5     6 1   
    15     5    14 1   
@<TRIPOS>SUBSTRUCTURE
     1 3ZS         1 TEMP              0 ****  ****    0 ROOT
