@<TRIPOS>MOLECULE
3ZU
   32    34     1     0     0
SMALL
No Charge or Current Charge


@<TRIPOS>ATOM
      1 C1           6.4200    -0.1330    -0.1070 c3         1 3ZU       0.144900
      2 O1           5.1920    -0.8650    -0.2710 os         1 3ZU      -0.332100
      3 C2           3.8040     1.0990     0.2270 ca         1 3ZU      -0.196000
      4 C3           2.5200     1.6670     0.3810 ca         1 3ZU      -0.004000
      5 C4           1.3970     0.8440     0.1930 ca         1 3ZU      -0.145200
      6 C5          -0.6890     0.0360     0.0240 cc         1 3ZU       0.014900
      7 C6           0.2030    -1.1010    -0.2720 c          1 3ZU       0.508400
      8 C7          -4.9890    -0.1390    -0.0290 ca         1 3ZU       0.324000
      9 C8           1.5490    -0.4970    -0.1370 ca         1 3ZU      -0.146600
     10 C9           2.8140    -1.0820    -0.2960 ca         1 3ZU      -0.066000
     11 C10          3.9540    -0.2740    -0.1110 ca         1 3ZU       0.155100
     12 N1           0.0460     1.1930     0.2950 na         1 3ZU       0.391500
     13 O2          -0.2690     2.3490     0.6140 o          1 3ZU      -0.456000
     14 N2          -6.3530    -0.1970    -0.0470 nv         1 3ZU      -1.091000
     15 C11         -4.3310     1.0240    -0.4450 ca         1 3ZU      -0.197000
     16 C12         -2.9260     1.0880    -0.4290 ca         1 3ZU      -0.030000
     17 C13         -2.1650    -0.0200     0.0060 ca         1 3ZU      -0.155900
     18 C14         -2.8410    -1.1870     0.4210 ca         1 3ZU      -0.030000
     19 C15         -4.2450    -1.2420     0.4030 ca         1 3ZU      -0.197000
     20 H1           6.4790     0.6960    -0.8230 h1         1 3ZU       0.047700
     21 H2           6.5000     0.2710     0.9100 h1         1 3ZU       0.047700
     22 H3           7.2800    -0.7920    -0.2790 h1         1 3ZU       0.047700
     23 H4           4.6690     1.7380     0.3740 ha         1 3ZU       0.129000
     24 H5           2.4070     2.7190     0.6410 ha         1 3ZU       0.152000
     25 H7           2.9170    -2.1320    -0.5560 ha         1 3ZU       0.153000
     26 H9          -6.8800     0.5380    -0.5160 hn         1 3ZU       0.461000
     27 H10         -6.8220    -1.0900     0.0930 hn         1 3ZU       0.461000
     28 H11         -4.9020     1.8830    -0.7840 ha         1 3ZU       0.112000
     29 H12         -2.4380     1.9980    -0.7690 ha         1 3ZU       0.125500
     30 H13         -2.2850    -2.0540     0.7730 ha         1 3ZU       0.125500
     31 H14         -4.7510    -2.1470     0.7300 ha         1 3ZU       0.112000
     32 O3          -0.0610    -2.2590    -0.5730 o          1 3ZU      -0.470100
@<TRIPOS>BOND
     1     1     2 1   
     2     1    20 1   
     3     1    21 1   
     4     1    22 1   
     5     2    11 1   
     6     3     4 ar  
     7     3    11 ar  
     8     3    23 1   
     9     4     5 ar  
    10     4    24 1   
    11     5     9 ar  
    12     5    12 1   
    13     6     7 1   
    14     6    12 2   
    15     6    17 1   
    16     7     9 1   
    17     7    32 2   
    18     8    14 1   
    19     8    15 ar  
    20     8    19 ar  
    21     9    10 ar  
    22    10    11 ar  
    23    10    25 1   
    24    12    13 1   
    25    14    26 1   
    26    14    27 1   
    27    15    16 ar  
    28    15    28 1   
    29    16    17 ar  
    30    16    29 1   
    31    17    18 ar  
    32    18    19 ar  
    33    18    30 1   
    34    19    31 1   
@<TRIPOS>SUBSTRUCTURE
     1 3ZU         1 TEMP              0 ****  ****    0 ROOT
