@<TRIPOS>MOLECULE
3ZU
   32    34     1     0     0
SMALL
abcg2


@<TRIPOS>ATOM
      1 C1           6.3230    -0.1020    -0.0600 c3         1 3ZU       0.144900
      2 O1           5.1450    -0.8660    -0.2470 os         1 3ZU      -0.332100
      3 C2           3.7890     1.0830     0.1950 ca         1 3ZU      -0.196000
      4 C3           2.5130     1.6430     0.3260 ca         1 3ZU      -0.004000
      5 C4           1.4500     0.8050     0.1440 ca         1 3ZU      -0.145200
      6 C5          -0.6930     0.0380     0.0090 cc         1 3ZU       0.014900
      7 C6           0.2250    -1.0910    -0.2730 c          1 3ZU       0.508400
      8 C7          -4.9690    -0.1270    -0.0040 ca         1 3ZU       0.324000
      9 C8           1.5970    -0.5360    -0.1540 ca         1 3ZU      -0.146600
     10 C9           2.8350    -1.1030    -0.2880 ca         1 3ZU      -0.066000
     11 C10          3.9560    -0.2680    -0.1080 ca         1 3ZU       0.155100
     12 N1           0.0490     1.1120     0.2310 na         1 3ZU       0.391500
     13 O2          -0.3190     2.2690     0.4980 o          1 3ZU      -0.456000
     14 N2          -6.3310    -0.1760     0.0360 nv         1 3ZU      -1.091000
     15 C11         -4.2950     1.0450    -0.3840 ca         1 3ZU      -0.197000
     16 C12         -2.9180     1.1110    -0.3680 ca         1 3ZU      -0.030000
     17 C13         -2.1390     0.0070     0.0110 ca         1 3ZU      -0.155900
     18 C14         -2.8160    -1.1630     0.3830 ca         1 3ZU      -0.030000
     19 C15         -4.1920    -1.2310     0.3800 ca         1 3ZU      -0.197000
     20 H1           6.4030     0.7060    -0.7900 h1         1 3ZU       0.047700
     21 H2           6.3750     0.3210     0.9460 h1         1 3ZU       0.047700
     22 H3           7.1560    -0.7860    -0.1980 h1         1 3ZU       0.047700
     23 H4           4.6440     1.7280     0.3340 ha         1 3ZU       0.129000
     24 H5           2.3920     2.6920     0.5570 ha         1 3ZU       0.152000
     25 H7           2.9640    -2.1520    -0.5210 ha         1 3ZU       0.153000
     26 H9          -6.8390     0.5200    -0.4840 hn         1 3ZU       0.461000
     27 H10         -6.7650    -1.0840     0.0240 hn         1 3ZU       0.461000
     28 H11         -4.8640     1.9130    -0.6940 ha         1 3ZU       0.112000
     29 H12         -2.4470     2.0310    -0.6810 ha         1 3ZU       0.125500
     30 H13         -2.2630    -2.0360     0.7000 ha         1 3ZU       0.125500
     31 H14         -4.6810    -2.1480     0.6870 ha         1 3ZU       0.112000
     32 O3          -0.0800    -2.2220    -0.5640 o          1 3ZU      -0.470100
@<TRIPOS>BOND
     1     1     2 1   
     2     1    20 1   
     3     1    21 1   
     4     1    22 1   
     5     2    11 1   
     6     3     4 ar  
     7     3    11 ar  
     8     3    23 1   
     9     4     5 ar  
    10     4    24 1   
    11     5     9 ar  
    12     5    12 1   
    13     6     7 1   
    14     6    12 2   
    15     6    17 1   
    16     7     9 1   
    17     7    32 2   
    18     8    14 1   
    19     8    15 ar  
    20     8    19 ar  
    21     9    10 ar  
    22    10    11 ar  
    23    10    25 1   
    24    12    13 1   
    25    14    26 1   
    26    14    27 1   
    27    15    16 ar  
    28    15    28 1   
    29    16    17 ar  
    30    16    29 1   
    31    17    18 ar  
    32    18    19 ar  
    33    18    30 1   
    34    19    31 1   
@<TRIPOS>SUBSTRUCTURE
     1 3ZU         1 TEMP              0 ****  ****    0 ROOT
