@<TRIPOS>MOLECULE
3ZV
   33    35     1     0     0
SMALL
No Charge or Current Charge


@<TRIPOS>ATOM
      1 C5           6.8010     0.2030     0.1460 c3         1 3ZV       0.146900
      2 O4           5.6100    -0.5920     0.2850 os         1 3ZV      -0.336100
      3 C6           4.1280     1.3160    -0.1580 ca         1 3ZV      -0.181000
      4 C7           2.8150     1.8210    -0.2980 ca         1 3ZV      -0.034000
      5 C8           1.7280     0.9480    -0.1410 ca         1 3ZV       0.083400
      6 C10         -0.2600     0.1270    -0.0230 cc         1 3ZV       0.413900
      7 C11          0.6470    -1.0250     0.2550 c          1 3ZV       0.468400
      8 C13         -4.5680    -0.0720    -0.1160 ca         1 3ZV       0.166100
      9 C15         -6.8160     0.9220     0.1020 c3         1 3ZV       0.147900
     10 C1           1.9550    -0.3850     0.1480 ca         1 3ZV      -0.194600
     11 C2           3.2430    -0.9210     0.2950 ca         1 3ZV      -0.053000
     12 C3           4.3460    -0.0570     0.1390 ca         1 3ZV       0.131100
     13 N9           0.3730     1.2950    -0.2470 nd         1 3ZV      -0.521100
     14 O14         -5.9420    -0.1880    -0.1680 os         1 3ZV      -0.337100
     15 C16         -3.9170     1.1380     0.1960 ca         1 3ZV      -0.189000
     16 C17         -2.5120     1.1940     0.2320 ca         1 3ZV      -0.030000
     17 C18         -1.7340     0.0420    -0.0250 ca         1 3ZV      -0.177900
     18 C19         -2.3980    -1.1590    -0.3620 ca         1 3ZV      -0.030000
     19 C20         -3.8020    -1.2110    -0.3980 ca         1 3ZV      -0.189000
     20 H1           6.8190     1.0130     0.8860 h1         1 3ZV       0.043700
     21 H2           7.6920    -0.4180     0.3000 h1         1 3ZV       0.043700
     22 H3           6.8630     0.6420    -0.8580 h1         1 3ZV       0.043700
     23 H4           4.9600     2.0030    -0.2830 ha         1 3ZV       0.121000
     24 H5           2.6460     2.8710    -0.5250 ha         1 3ZV       0.133000
     25 H6          -7.8640     0.6120     0.0080 h1         1 3ZV       0.043367
     26 H7          -6.6640     1.2990     1.1220 h1         1 3ZV       0.043367
     27 H8          -6.6390     1.7400    -0.6070 h1         1 3ZV       0.043367
     28 H9           3.3920    -1.9740     0.5240 ha         1 3ZV       0.145000
     29 H10         -4.4780     2.0420     0.4110 ha         1 3ZV       0.125500
     30 H11         -2.0310     2.1410     0.4730 ha         1 3ZV       0.134500
     31 H12         -1.8390    -2.0580    -0.6110 ha         1 3ZV       0.134500
     32 H13         -4.3010    -2.1430    -0.6540 ha         1 3ZV       0.125500
     33 O12          0.4170    -2.2010     0.5250 o          1 3ZV      -0.463100
@<TRIPOS>BOND
     1     1     2 1   
     2     1    20 1   
     3     1    21 1   
     4     1    22 1   
     5     2    12 1   
     6     3     4 ar  
     7     3    12 ar  
     8     3    23 1   
     9     4     5 ar  
    10     4    24 1   
    11     5    10 ar  
    12     5    13 1   
    13     6     7 1   
    14     6    13 2   
    15     6    17 1   
    16     7    10 1   
    17     7    33 2   
    18     8    14 1   
    19     8    15 ar  
    20     8    19 ar  
    21     9    14 1   
    22     9    25 1   
    23     9    26 1   
    24     9    27 1   
    25    10    11 ar  
    26    11    12 ar  
    27    11    28 1   
    28    15    16 ar  
    29    15    29 1   
    30    16    17 ar  
    31    16    30 1   
    32    17    18 ar  
    33    18    19 ar  
    34    18    31 1   
    35    19    32 1   
@<TRIPOS>SUBSTRUCTURE
     1 3ZV         1 TEMP              0 ****  ****    0 ROOT
