@<TRIPOS>MOLECULE
3ZV
   33    35     1     0     0
SMALL
abcg2


@<TRIPOS>ATOM
      1 C5           6.6900     0.2740     0.0800 c3         1 3ZV       0.146900
      2 O4           5.5690    -0.5840     0.0510 os         1 3ZV      -0.336100
      3 C6           4.0810     1.3270     0.0320 ca         1 3ZV      -0.181000
      4 C7           2.7710     1.8200     0.0200 ca         1 3ZV      -0.034000
      5 C8           1.7340     0.9200     0.0180 ca         1 3ZV       0.083400
      6 C10         -0.2940     0.0850     0.0060 cc         1 3ZV       0.413900
      7 C11          0.6780    -1.1060     0.0230 c          1 3ZV       0.468400
      8 C13         -4.5550    -0.0550    -0.0290 ca         1 3ZV       0.166100
      9 C15         -6.6870     0.9820     0.0040 c3         1 3ZV       0.147900
     10 C1           2.0000    -0.4460     0.0260 ca         1 3ZV      -0.194600
     11 C2           3.2710    -0.9560     0.0380 ca         1 3ZV      -0.053000
     12 C3           4.3400    -0.0420     0.0410 ca         1 3ZV       0.131100
     13 N9           0.3490     1.1960     0.0060 nd         1 3ZV      -0.521100
     14 O14         -5.8860    -0.1820    -0.0450 os         1 3ZV      -0.337100
     15 C16         -3.8780     1.1670    -0.0010 ca         1 3ZV      -0.189000
     16 C17         -2.4970     1.1850     0.0110 ca         1 3ZV      -0.030000
     17 C18         -1.7460     0.0070    -0.0040 ca         1 3ZV      -0.177900
     18 C19         -2.4390    -1.2110    -0.0320 ca         1 3ZV      -0.030000
     19 C20         -3.8170    -1.2410    -0.0440 ca         1 3ZV      -0.189000
     20 H1           6.6990     0.9060     0.9710 h1         1 3ZV       0.043700
     21 H2           7.5680    -0.3660     0.1010 h1         1 3ZV       0.043700
     22 H3           6.7450     0.9090    -0.8080 h1         1 3ZV       0.043700
     23 H4           4.8890     2.0440     0.0350 ha         1 3ZV       0.121000
     24 H5           2.5950     2.8880     0.0120 ha         1 3ZV       0.133000
     25 H6          -7.7200     0.6460     0.0040 h1         1 3ZV       0.043367
     26 H7          -6.5080     1.5640     0.9110 h1         1 3ZV       0.043367
     27 H8          -6.5280     1.6250    -0.8660 h1         1 3ZV       0.043367
     28 H9           3.4590    -2.0220     0.0430 ha         1 3ZV       0.145000
     29 H10         -4.4120     2.1070     0.0110 ha         1 3ZV       0.125500
     30 H11         -1.9860     2.1390     0.0350 ha         1 3ZV       0.134500
     31 H12         -1.9010    -2.1480    -0.0430 ha         1 3ZV       0.134500
     32 H13         -4.3400    -2.1880    -0.0640 ha         1 3ZV       0.125500
     33 O12          0.4240    -2.2790     0.0290 o          1 3ZV      -0.463100
@<TRIPOS>BOND
     1     1     2 1   
     2     1    20 1   
     3     1    21 1   
     4     1    22 1   
     5     2    12 1   
     6     3     4 ar  
     7     3    12 ar  
     8     3    23 1   
     9     4     5 ar  
    10     4    24 1   
    11     5    10 ar  
    12     5    13 1   
    13     6     7 1   
    14     6    13 2   
    15     6    17 1   
    16     7    10 1   
    17     7    33 2   
    18     8    14 1   
    19     8    15 ar  
    20     8    19 ar  
    21     9    14 1   
    22     9    25 1   
    23     9    26 1   
    24     9    27 1   
    25    10    11 ar  
    26    11    12 ar  
    27    11    28 1   
    28    15    16 ar  
    29    15    29 1   
    30    16    17 ar  
    31    16    30 1   
    32    17    18 ar  
    33    18    19 ar  
    34    18    31 1   
    35    19    32 1   
@<TRIPOS>SUBSTRUCTURE
     1 3ZV         1 TEMP              0 ****  ****    0 ROOT
