@<TRIPOS>MOLECULE
3ZW
   51    52     1     0     0
SMALL
No Charge or Current Charge


@<TRIPOS>ATOM
      1 C4          -0.8980     0.5830    -0.2290 c6         1 3ZW       0.154300
      2 C5          -1.3800     2.0470     0.0230 c6         1 3ZW       0.151300
      3 C6          -0.4930     3.1290    -0.6780 c3         1 3ZW       0.170600
      4 C7          -4.6070    -2.3300     0.3940 c          1 3ZW       0.600100
      5 C8          -5.7270    -2.9480     1.2150 c3         1 3ZW      -0.182100
      6 N2          -4.3750    -0.9970     0.6220 ns         1 3ZW      -0.515900
      7 C3          -1.9250    -0.4220     0.3960 c6         1 3ZW       0.157300
      8 O7          -3.9320    -2.9660    -0.4010 o          1 3ZW      -0.591100
      9 C2          -3.3850    -0.1410    -0.0870 c6         1 3ZW       0.047700
     10 O3          -1.5570    -1.7870     0.1010 oh         1 3ZW      -0.701000
     11 C1          -3.7350     1.3690     0.1110 c6         1 3ZW       0.374300
     12 O1          -3.8370     1.7200     1.4890 oh         1 3ZW      -0.687000
     13 O5          -2.7360     2.2110    -0.4800 os         1 3ZW      -0.462000
     14 O6          -1.0020     4.4690    -0.5270 oh         1 3ZW      -0.707000
     15 O4           0.4290     0.3260     0.3090 os         1 3ZW      -0.465000
     16 CAW          1.5620     0.4860    -0.5790 c5         1 3ZW       0.352300
     17 OAN          2.1750    -0.8040    -0.7600 os         1 3ZW      -0.461000
     18 CAT          2.6860     1.3210     0.1390 c5         1 3ZW       0.105300
     19 OAG          3.7190     1.7290    -0.7860 oh         1 3ZW      -0.702000
     20 CAU          3.2390     0.2680     1.1620 c5         1 3ZW       0.148300
     21 OAH          2.4840     0.2060     2.3870 oh         1 3ZW      -0.699000
     22 CAY          3.1120    -1.0590     0.3260 c5         1 3ZW       0.131300
     23 CAQ          4.4590    -1.5890    -0.2620 c3         1 3ZW       0.174300
     24 OAE          5.1120    -0.5730    -1.0640 oh         1 3ZW      -0.702000
     25 CAJ          4.2830    -2.9050    -1.0790 c3         1 3ZW       0.135600
     26 OAC          5.5530    -3.5030    -1.4050 oh         1 3ZW      -0.652000
     27 H1          -0.8810     0.4030    -1.3140 h1         1 3ZW       0.070700
     28 H2          -1.3630     2.2500     1.1030 h1         1 3ZW       0.073700
     29 H3           0.5170     3.0770    -0.2570 h1         1 3ZW       0.025700
     30 H4          -0.4190     2.8740    -1.7440 h1         1 3ZW       0.025700
     31 H5          -5.8620    -4.0150     1.0080 hc         1 3ZW       0.062033
     32 H6          -5.5340    -2.7630     2.2780 hc         1 3ZW       0.062033
     33 H7          -6.6490    -2.3810     1.0430 hc         1 3ZW       0.062033
     34 H8          -4.9520    -0.5560     1.3310 hn         1 3ZW       0.321500
     35 H9          -1.9060    -0.2710     1.4860 h1         1 3ZW       0.057700
     36 H10         -3.4500    -0.3510    -1.1650 h1         1 3ZW       0.107700
     37 H11         -2.4080    -2.2660    -0.0960 ho         1 3ZW       0.509000
     38 H12         -4.6990     1.5660    -0.3840 h2         1 3ZW       0.076700
     39 H13         -3.9440     2.6950     1.4910 ho         1 3ZW       0.463000
     40 H14         -0.4490     5.0550    -1.0940 ho         1 3ZW       0.503000
     41 H15          1.2610     0.9260    -1.5390 h2         1 3ZW       0.063700
     42 H16          2.2750     2.1950     0.6630 h1         1 3ZW       0.065700
     43 H17          3.4910     2.6350    -1.1090 ho         1 3ZW       0.507000
     44 H18          4.2930     0.4800     1.3970 h1         1 3ZW       0.077700
     45 H19          2.6070     1.0650     2.8530 ho         1 3ZW       0.507000
     46 H20          2.6910    -1.8530     0.9590 h1         1 3ZW       0.088700
     47 H21          5.0940    -1.8340     0.6010 h1         1 3ZW       0.083700
     48 H22          4.5440     0.2470    -1.0110 ho         1 3ZW       0.511000
     49 H23          3.6850    -3.6100    -0.4850 h1         1 3ZW       0.030200
     50 H24          3.7170    -2.6890    -1.9950 h1         1 3ZW       0.030200
     51 H25          5.3680    -4.2740    -1.9860 ho         1 3ZW       0.440000
@<TRIPOS>BOND
     1     1     2 1   
     2     1     7 1   
     3     1    15 1   
     4     1    27 1   
     5     2     3 1   
     6     2    13 1   
     7     2    28 1   
     8     3    14 1   
     9     3    29 1   
    10     3    30 1   
    11     4     5 1   
    12     4     6 1   
    13     4     8 2   
    14     5    31 1   
    15     5    32 1   
    16     5    33 1   
    17     6     9 1   
    18     6    34 1   
    19     7     9 1   
    20     7    10 1   
    21     7    35 1   
    22     9    11 1   
    23     9    36 1   
    24    10    37 1   
    25    11    12 1   
    26    11    13 1   
    27    11    38 1   
    28    12    39 1   
    29    14    40 1   
    30    15    16 1   
    31    16    17 1   
    32    16    18 1   
    33    16    41 1   
    34    17    22 1   
    35    18    19 1   
    36    18    20 1   
    37    18    42 1   
    38    19    43 1   
    39    20    21 1   
    40    20    22 1   
    41    20    44 1   
    42    21    45 1   
    43    22    23 1   
    44    22    46 1   
    45    23    24 1   
    46    23    25 1   
    47    23    47 1   
    48    24    48 1   
    49    25    26 1   
    50    25    49 1   
    51    25    50 1   
    52    26    51 1   
@<TRIPOS>SUBSTRUCTURE
     1 3ZW         1 TEMP              0 ****  ****    0 ROOT
