@<TRIPOS>MOLECULE
3ZW
   51    52     1     0     0
SMALL
bcc


@<TRIPOS>ATOM
      1 C4          -0.6390     0.9810    -0.2020 c6         1 3ZW       0.131100
      2 C5          -1.4730     2.2700    -0.2010 c6         1 3ZW       0.128100
      3 C6          -0.8370     3.3540    -1.0480 c3         1 3ZW       0.147400
      4 C7          -3.9930    -2.4230     0.0900 c          1 3ZW       0.667100
      5 C8          -4.8150    -3.2780     1.0240 c3         1 3ZW      -0.182100
      6 N2          -3.5560    -1.2700     0.6420 ns         1 3ZW      -0.582900
      7 C3          -1.3870    -0.1250     0.5320 c6         1 3ZW       0.134100
      8 O7          -3.7540    -2.7460    -1.0630 o          1 3ZW      -0.591100
      9 C2          -2.7970    -0.2650    -0.0590 c6         1 3ZW       0.047700
     10 O3          -0.6750    -1.3250     0.3940 oh         1 3ZW      -0.578800
     11 C1          -3.5300     1.0730    -0.0700 c6         1 3ZW       0.327900
     12 O1          -3.8060     1.4260     1.2480 oh         1 3ZW      -0.624800
     13 O5          -2.7610     2.0300    -0.7410 os         1 3ZW      -0.415600
     14 O6          -1.6010     4.5280    -0.9240 oh         1 3ZW      -0.584800
     15 O4           0.5900     1.2310     0.4490 os         1 3ZW      -0.418600
     16 CAW          1.7430     1.1330    -0.3300 c5         1 3ZW       0.305900
     17 OAN          2.0200    -0.1730    -0.7190 os         1 3ZW      -0.414600
     18 CAT          2.9350     1.5260     0.5420 c5         1 3ZW       0.082100
     19 OAG          4.0510     1.8280    -0.2580 oh         1 3ZW      -0.579800
     20 CAU          3.2340     0.2150     1.2850 c5         1 3ZW       0.125100
     21 OAH          2.6230     0.1340     2.5460 oh         1 3ZW      -0.576800
     22 CAY          2.6210    -0.8650     0.3720 c5         1 3ZW       0.108100
     23 CAQ          3.6180    -1.8700    -0.1850 c3         1 3ZW       0.151100
     24 OAE          4.6970    -1.2550    -0.8490 oh         1 3ZW      -0.579800
     25 CAJ          2.9150    -2.9000    -1.0600 c3         1 3ZW       0.112400
     26 OAC          3.8300    -3.9250    -1.3690 oh         1 3ZW      -0.589800
     27 H1          -0.4790     0.6620    -1.2420 h1         1 3ZW       0.070700
     28 H2          -1.5490     2.6330     0.8330 h1         1 3ZW       0.073700
     29 H3           0.1900     3.5110    -0.6990 h1         1 3ZW       0.025700
     30 H4          -0.7800     3.0090    -2.0900 h1         1 3ZW       0.025700
     31 H5          -5.0710    -4.2210     0.5480 hc         1 3ZW       0.062033
     32 H6          -4.2730    -3.4860     1.9480 hc         1 3ZW       0.062033
     33 H7          -5.7370    -2.7630     1.2980 hc         1 3ZW       0.062033
     34 H8          -3.8280    -1.0640     1.5910 hn         1 3ZW       0.321500
     35 H9          -1.4680     0.1650     1.5900 h1         1 3ZW       0.057700
     36 H10         -2.7000    -0.5940    -1.0950 h1         1 3ZW       0.107700
     37 H11         -1.0500    -1.9680     1.0040 ho         1 3ZW       0.410000
     38 H12         -4.4500     0.9850    -0.6590 h2         1 3ZW       0.076700
     39 H13         -4.4550     2.1390     1.2590 ho         1 3ZW       0.424000
     40 H14         -1.1880     5.2100    -1.4610 ho         1 3ZW       0.404000
     41 H15          1.6570     1.7340    -1.2470 h2         1 3ZW       0.063700
     42 H16          2.6920     2.3440     1.2320 h1         1 3ZW       0.065700
     43 H17          3.8740     2.6410    -0.7420 ho         1 3ZW       0.408000
     44 H18          4.3210     0.0950     1.3660 h1         1 3ZW       0.077700
     45 H19          3.0810     0.7360     3.1400 ho         1 3ZW       0.408000
     46 H20          1.8550    -1.4060     0.9370 h1         1 3ZW       0.088700
     47 H21          4.0450    -2.3980     0.6750 h1         1 3ZW       0.083700
     48 H22          4.3430    -0.5780    -1.4370 ho         1 3ZW       0.412000
     49 H23          2.0450    -3.2840    -0.5110 h1         1 3ZW       0.030200
     50 H24          2.5330    -2.4150    -1.9670 h1         1 3ZW       0.030200
     51 H25          3.3890    -4.5540    -1.9450 ho         1 3ZW       0.401000
@<TRIPOS>BOND
     1     1     2 1   
     2     1     7 1   
     3     1    15 1   
     4     1    27 1   
     5     2     3 1   
     6     2    13 1   
     7     2    28 1   
     8     3    14 1   
     9     3    29 1   
    10     3    30 1   
    11     4     5 1   
    12     4     6 1   
    13     4     8 2   
    14     5    31 1   
    15     5    32 1   
    16     5    33 1   
    17     6     9 1   
    18     6    34 1   
    19     7     9 1   
    20     7    10 1   
    21     7    35 1   
    22     9    11 1   
    23     9    36 1   
    24    10    37 1   
    25    11    12 1   
    26    11    13 1   
    27    11    38 1   
    28    12    39 1   
    29    14    40 1   
    30    15    16 1   
    31    16    17 1   
    32    16    18 1   
    33    16    41 1   
    34    17    22 1   
    35    18    19 1   
    36    18    20 1   
    37    18    42 1   
    38    19    43 1   
    39    20    21 1   
    40    20    22 1   
    41    20    44 1   
    42    21    45 1   
    43    22    23 1   
    44    22    46 1   
    45    23    24 1   
    46    23    25 1   
    47    23    47 1   
    48    24    48 1   
    49    25    26 1   
    50    25    49 1   
    51    25    50 1   
    52    26    51 1   
@<TRIPOS>SUBSTRUCTURE
     1 3ZW         1 TEMP              0 ****  ****    0 ROOT
