@<TRIPOS>MOLECULE
J01
   22    23     1     0     0
SMALL
No Charge or Current Charge


@<TRIPOS>ATOM
      1 O2           3.8700     3.6030    -2.3070 o          1 J01      -0.512000
      2 C5           3.2880     3.6680    -1.2350 c          1 J01       0.535000
      3 C4           2.2370     4.6080    -0.5990 cy         1 J01      -0.225400
      4 C3           2.0760     3.4730     0.4600 cy         1 J01       0.276700
      5 N1           3.2660     2.8470    -0.1030 nj         1 J01      -0.323800
      6 O1           1.0940     2.4650     0.2090 os         1 J01      -0.373100
      7 C1           1.7220     1.2500     0.0620 c2         1 J01       0.109900
      8 C2           3.2370     1.3930    -0.0440 c5         1 J01      -0.059100
      9 C8           3.9820     0.7810     1.1770 c          1 J01       0.743000
     10 O5           3.8200     1.2610     2.2920 o          1 J01      -0.702000
     11 O4           4.7310    -0.1670     0.9850 o          1 J01      -0.702000
     12 C6           1.0890     0.0740    -0.0440 c2         1 J01      -0.357200
     13 C7          -0.4010    -0.1350     0.0130 c3         1 J01       0.214800
     14 O3          -0.8820    -0.3030    -1.3180 oh         1 J01      -0.675000
     15 H4C1         2.6910     5.5400    -0.2520 hc         1 J01       0.076200
     16 H4C2         1.3820     4.7920    -1.2550 hc         1 J01       0.076200
     17 H3           2.1190     3.7200     1.5280 h2         1 J01       0.114700
     18 H2           3.6380     0.9700    -0.9730 h1         1 J01       0.085700
     19 H6           1.6640    -0.8430    -0.1760 ha         1 J01       0.195000
     20 H7C1        -0.8910     0.7230     0.4940 h1         1 J01       0.036200
     21 H7C2        -0.6240    -1.0260     0.6160 h1         1 J01       0.036200
     22 HA          -0.3210    -0.9970    -1.7270 ho         1 J01       0.428000
@<TRIPOS>BOND
     1     1     2 2   
     2     2     3 1   
     3     2     5 1   
     4     3     4 1   
     5     3    15 1   
     6     3    16 1   
     7     4     5 1   
     8     4     6 1   
     9     4    17 1   
    10     5     8 1   
    11     6     7 1   
    12     7     8 1   
    13     7    12 2   
    14     8     9 1   
    15     8    18 1   
    16     9    10 1   
    17     9    11 1   
    18    12    13 1   
    19    12    19 1   
    20    13    14 1   
    21    13    20 1   
    22    13    21 1   
    23    14    22 1   
@<TRIPOS>SUBSTRUCTURE
     1 J01         1 TEMP              0 ****  ****    0 ROOT
