@<TRIPOS>MOLECULE
J01
   22    23     1     0     0
SMALL
abcg2


@<TRIPOS>ATOM
      1 O2           3.8920     3.6180    -2.2320 o          1 J01      -0.512000
      2 C5           3.2840     3.6550    -1.1980 c          1 J01       0.535000
      3 C4           2.1410     4.4770    -0.6150 cy         1 J01      -0.225400
      4 C3           2.1700     3.4280     0.5040 cy         1 J01       0.276700
      5 N1           3.3810     2.8710    -0.0600 nj         1 J01      -0.323800
      6 O1           1.2060     2.3960     0.3820 os         1 J01      -0.373100
      7 C1           1.8130     1.2210     0.0530 c2         1 J01       0.109900
      8 C2           3.3170     1.4240    -0.0220 c5         1 J01      -0.059100
      9 C8           3.9820     0.8190     1.2410 c          1 J01       0.743000
     10 O5           4.0500     1.5680     2.2280 o          1 J01      -0.702000
     11 O4           4.3310    -0.3680     1.1390 o          1 J01      -0.702000
     12 C6           1.1470     0.0870    -0.1410 c2         1 J01      -0.357200
     13 C7          -0.3380    -0.0810    -0.0590 c3         1 J01       0.214800
     14 O3          -0.9550    -0.2170    -1.3290 oh         1 J01      -0.675000
     15 H4C1         2.4000     5.4930    -0.3160 hc         1 J01       0.076200
     16 H4C2         1.2370     4.4920    -1.2220 hc         1 J01       0.076200
     17 H3           2.2200     3.7680     1.5380 h2         1 J01       0.114700
     18 H2           3.7330     0.9950    -0.9340 h1         1 J01       0.085700
     19 H6           1.7400    -0.7840    -0.3950 ha         1 J01       0.195000
     20 H7C1        -0.8010     0.7850     0.4130 h1         1 J01       0.036200
     21 H7C2        -0.5690    -0.9450     0.5770 h1         1 J01       0.036200
     22 HA          -0.5940    -1.0030    -1.7510 ho         1 J01       0.428000
@<TRIPOS>BOND
     1     1     2 2   
     2     2     3 1   
     3     2     5 1   
     4     3     4 1   
     5     3    15 1   
     6     3    16 1   
     7     4     5 1   
     8     4     6 1   
     9     4    17 1   
    10     5     8 1   
    11     6     7 1   
    12     7     8 1   
    13     7    12 2   
    14     8     9 1   
    15     8    18 1   
    16     9    10 1   
    17     9    11 1   
    18    12    13 1   
    19    12    19 1   
    20    13    14 1   
    21    13    20 1   
    22    13    21 1   
    23    14    22 1   
@<TRIPOS>SUBSTRUCTURE
     1 J01         1 TEMP              0 ****  ****    0 ROOT
