@<TRIPOS>MOLECULE
J02
   42    43     1     0     0
SMALL
abcg2


@<TRIPOS>ATOM
      1 C1           4.1870    -1.1200    -0.6340 ca         1 J02      -0.071300
      2 C12          0.0680    -0.1270     0.1080 cc         1 J02       0.201300
      3 C13          0.9200    -0.4710    -0.9100 cd         1 J02      -0.207000
      4 C14         -1.1120     0.7770     0.0850 c3         1 J02       0.087700
      5 C16         -3.5480     0.5920     0.1450 c          1 J02       0.641100
      6 C19         -4.7320    -0.3790     0.0830 c3         1 J02      -0.372000
      7 C2           5.0040    -1.4270     0.4480 ca         1 J02      -0.096500
      8 C20         -4.7250    -1.1510    -1.2380 c3         1 J02      -0.052100
      9 C21         -4.6810    -1.3430     1.2710 c3         1 J02      -0.052100
     10 C3           6.1170    -0.6550     0.7340 ca         1 J02      -0.048000
     11 C4           6.4000     0.4330    -0.0780 ca         1 J02      -0.168200
     12 C5           5.6010     0.7610    -1.1640 ca         1 J02      -0.048000
     13 C6           4.4950    -0.0250    -1.4350 ca         1 J02      -0.096500
     14 C8           2.9600    -1.9450    -0.9200 c3         1 J02       0.125900
     15 N1           7.5690     1.2500     0.2140 no         1 J02       0.694200
     16 N10          1.4950    -1.5080     0.9370 nd         1 J02      -0.215800
     17 N11          0.4640    -0.7930     1.2170 nc         1 J02      -0.334000
     18 N15         -2.3410     0.0070     0.0400 ns         1 J02      -0.521900
     19 N9           1.7790    -1.3310    -0.3420 na         1 J02       0.109800
     20 O1          -6.3310     1.4700    -0.9810 o          1 J02      -0.680533
     21 O18         -3.6570     1.7970     0.2890 o          1 J02      -0.581100
     22 O2           8.2550     0.9410     1.1600 o          1 J02      -0.399000
     23 O24         -7.3530    -0.4770     0.1060 o          1 J02      -0.680533
     24 O3           7.7950     2.1950    -0.5030 o          1 J02      -0.399000
     25 S22         -6.3080     0.5660     0.1830 s6         1 J02       1.325600
     26 H1           0.9650    -0.1840    -1.9470 h4         1 J02       0.167000
     27 H2          -1.1070     1.4090     0.9750 h1         1 J02       0.058200
     28 H3          -1.0420     1.4420    -0.7790 h1         1 J02       0.058200
     29 H4           4.7780    -2.2790     1.0750 ha         1 J02       0.133000
     30 H5          -3.8480    -1.7960    -1.3130 hc         1 J02       0.032367
     31 H6          -5.6010    -1.7950    -1.3010 hc         1 J02       0.032367
     32 H7          -4.7240    -0.4840    -2.0990 hc         1 J02       0.032367
     33 H8          -4.6480    -0.8130     2.2220 hc         1 J02       0.032367
     34 H9          -5.5560    -1.9910     1.2650 hc         1 J02       0.032367
     35 H10         -3.8020    -1.9850     1.2130 hc         1 J02       0.032367
     36 H11          6.7460    -0.9080     1.5750 ha         1 J02       0.153500
     37 H12          5.8280     1.6060    -1.7960 ha         1 J02       0.153500
     38 H13          3.8730     0.2210    -2.2870 ha         1 J02       0.133000
     39 H14          2.7940    -2.0440    -1.9910 h1         1 J02       0.077700
     40 H15          3.0530    -2.9460    -0.5030 h1         1 J02       0.077700
     41 H16         -2.2660    -0.9860    -0.1090 hn         1 J02       0.314500
     42 O4          -6.3030     1.2540     1.4860 o          1 J02      -0.680533
@<TRIPOS>BOND
     1     1     7 ar  
     2     1    13 ar  
     3     1    14 1   
     4     2     3 2   
     5     2     4 1   
     6     2    17 1   
     7     3    19 1   
     8     3    26 1   
     9     4    18 1   
    10     4    27 1   
    11     4    28 1   
    12     5     6 1   
    13     5    18 1   
    14     5    21 2   
    15     6     8 1   
    16     6     9 1   
    17     6    25 1   
    18     7    10 ar  
    19     7    29 1   
    20     8    30 1   
    21     8    31 1   
    22     8    32 1   
    23     9    33 1   
    24     9    34 1   
    25     9    35 1   
    26    10    11 ar  
    27    10    36 1   
    28    11    12 ar  
    29    11    15 1   
    30    12    13 ar  
    31    12    37 1   
    32    13    38 1   
    33    14    19 1   
    34    14    39 1   
    35    14    40 1   
    36    15    22 1   
    37    15    24 1   
    38    16    17 2   
    39    16    19 1   
    40    18    41 1   
    41    20    25 1   
    42    23    25 1   
    43    25    42 1   
@<TRIPOS>SUBSTRUCTURE
     1 J02         1 TEMP              0 ****  ****    0 ROOT
