@<TRIPOS>MOLECULE
J02
   42    43     1     0     0
SMALL
No Charge or Current Charge


@<TRIPOS>ATOM
      1 C1           3.6790    -1.1860    -0.5760 ca         1 J02      -0.071300
      2 C12         -0.0160    -1.0630     1.6960 cc         1 J02       0.201300
      3 C13          0.7310    -0.9110     0.5700 cd         1 J02      -0.207000
      4 C14         -1.1540    -0.1960     2.1780 c3         1 J02       0.087700
      5 C16         -2.6800     0.2840     0.2230 c          1 J02       0.641100
      6 C19         -3.9770    -0.1280    -0.4820 c3         1 J02      -0.372000
      7 C2           4.2500    -0.5000     0.5140 ca         1 J02      -0.096500
      8 C20         -3.7250    -0.3050    -2.0130 c3         1 J02      -0.052100
      9 C21         -4.5780    -1.4660     0.0720 c3         1 J02      -0.052100
     10 C3           5.1840     0.5290     0.3020 ca         1 J02      -0.048000
     11 C4           5.5670     0.8880    -1.0120 ca         1 J02      -0.168200
     12 C5           4.9950     0.1940    -2.1040 ca         1 J02      -0.048000
     13 C6           4.0620    -0.8340    -1.8840 ca         1 J02      -0.096500
     14 C8           2.6650    -2.3060    -0.3490 c3         1 J02       0.125900
     15 N1           6.5620     1.9850    -1.2420 no         1 J02       0.694200
     16 N10          1.3850    -2.7220     1.7460 nd         1 J02      -0.215800
     17 N11          0.3930    -2.1640     2.3940 nc         1 J02      -0.334000
     18 N15         -2.3890    -0.3710     1.4010 ns         1 J02      -0.521900
     19 N9           1.6100    -1.9680     0.6210 na         1 J02       0.109800
     20 O1          -4.5330     2.4070    -0.8280 o          1 J02      -0.680533
     21 O18         -1.8720     1.0610    -0.2670 o          1 J02      -0.581100
     22 O2           7.0360     2.5630    -0.2550 o          1 J02      -0.399000
     23 O24         -6.3920     0.7910    -0.7700 o          1 J02      -0.680533
     24 O3           6.8670     2.2640    -2.4100 o          1 J02      -0.399000
     25 S22         -5.1290     1.2400    -0.1640 s6         1 J02       1.325600
     26 H1           0.7060    -0.1720    -0.2200 h4         1 J02       0.167000
     27 H2          -1.3690    -0.4330     3.2280 h1         1 J02       0.058200
     28 H3          -0.8450     0.8570     2.1360 h1         1 J02       0.058200
     29 H4           3.9730    -0.7640     1.5330 ha         1 J02       0.133000
     30 H5          -2.9910    -1.1000    -2.1930 hc         1 J02       0.032367
     31 H6          -4.6500    -0.5770    -2.5380 hc         1 J02       0.032367
     32 H7          -3.3400     0.6140    -2.4720 hc         1 J02       0.032367
     33 H8          -4.8630    -1.3850     1.1290 hc         1 J02       0.032367
     34 H9          -5.4770    -1.7560    -0.4860 hc         1 J02       0.032367
     35 H10         -3.8560    -2.2870    -0.0250 hc         1 J02       0.032367
     36 H11          5.6060     1.0400     1.1660 ha         1 J02       0.153500
     37 H12          5.2690     0.4440    -3.1280 ha         1 J02       0.153500
     38 H13          3.6350    -1.3560    -2.7380 ha         1 J02       0.133000
     39 H14          2.1790    -2.5660    -1.2970 h1         1 J02       0.077700
     40 H15          3.1950    -3.1990     0.0040 h1         1 J02       0.077700
     41 H16         -3.0840    -1.0250     1.7370 hn         1 J02       0.314500
     42 O4          -5.1690     1.3360     1.3020 o          1 J02      -0.680533
@<TRIPOS>BOND
     1     1     7 ar  
     2     1    13 ar  
     3     1    14 1   
     4     2     3 2   
     5     2     4 1   
     6     2    17 1   
     7     3    19 1   
     8     3    26 1   
     9     4    18 1   
    10     4    27 1   
    11     4    28 1   
    12     5     6 1   
    13     5    18 1   
    14     5    21 2   
    15     6     8 1   
    16     6     9 1   
    17     6    25 1   
    18     7    10 ar  
    19     7    29 1   
    20     8    30 1   
    21     8    31 1   
    22     8    32 1   
    23     9    33 1   
    24     9    34 1   
    25     9    35 1   
    26    10    11 ar  
    27    10    36 1   
    28    11    12 ar  
    29    11    15 1   
    30    12    13 ar  
    31    12    37 1   
    32    13    38 1   
    33    14    19 1   
    34    14    39 1   
    35    14    40 1   
    36    15    22 1   
    37    15    24 1   
    38    16    17 2   
    39    16    19 1   
    40    18    41 1   
    41    20    25 1   
    42    23    25 1   
    43    25    42 1   
@<TRIPOS>SUBSTRUCTURE
     1 J02         1 TEMP              0 ****  ****    0 ROOT
