@<TRIPOS>MOLECULE
J03
   35    37     1     0     0
SMALL
No Charge or Current Charge


@<TRIPOS>ATOM
      1 O5         -18.9210    21.8500     2.7570 oh         1 J03      -0.697000
      2 N9         -15.0020    20.5680     2.1440 na         1 J03      -0.296300
      3 C4         -14.1210    20.0460     1.2350 ca         1 J03       0.169500
      4 N3         -12.9610    20.5360     0.7600 nb         1 J03      -0.277000
      5 C2         -12.3340    19.7610    -0.1370 ca         1 J03       0.427900
      6 N2         -11.1700    20.2330    -0.6290 nv         1 J03      -1.054900
      7 N1         -12.7200    18.5720    -0.6130 nb         1 J03      -0.358000
      8 C6         -13.8860    18.0880    -0.1270 ca         1 J03       0.452300
      9 O6         -14.3760    16.8660    -0.5490 os         1 J03      -0.427300
     10 C5         -14.6210    18.8340     0.8260 ca         1 J03      -0.097600
     11 N7         -15.8240    18.5260     1.4510 nc         1 J03      -0.514100
     12 C8         -16.0150    19.5970     2.2420 cd         1 J03       0.398700
     13 C9         -14.8340    23.1140     1.9990 c5         1 J03      -0.121400
     14 C10        -17.8700    22.6430     2.1810 c3         1 J03       0.149600
     15 C7         -16.8480    23.1050     3.2690 c5         1 J03       0.128300
     16 O4         -16.0520    21.9910     3.7440 os         1 J03      -0.433000
     17 C1         -14.9020    21.8270     2.8790 c5         1 J03       0.312300
     18 C3         -15.7640    24.1010     2.7490 c5         1 J03       0.140300
     19 O3         -15.0570    24.7700     3.8030 oh         1 J03      -0.706000
     20 C          -13.6620    16.0720    -1.5160 c3         1 J03       0.155900
     21 H1         -19.5590    21.6430     2.0340 ho         1 J03       0.505000
     22 H2         -10.7890    19.7930    -1.4630 hn         1 J03       0.492000
     23 H3         -10.9450    21.2140    -0.4850 hn         1 J03       0.492000
     24 H4         -16.8590    19.7330     2.9080 h5         1 J03       0.062800
     25 H5         -13.8100    23.4910     1.8980 hc         1 J03       0.076700
     26 H6         -15.1970    22.9220     0.9830 hc         1 J03       0.076700
     27 H7         -18.2990    23.5380     1.7110 h1         1 J03       0.018200
     28 H8         -17.3550    22.0760     1.3950 h1         1 J03       0.018200
     29 H9         -17.4140    23.5320     4.1090 h1         1 J03       0.082700
     30 H10        -13.9980    21.7460     3.4980 h2         1 J03       0.111700
     31 H11        -16.1940    24.8410     2.0580 h1         1 J03       0.053700
     32 H12        -15.6850    25.4040     4.2230 ho         1 J03       0.510000
     33 H13        -14.2060    15.1420    -1.7230 h1         1 J03       0.049033
     34 H14        -13.5480    16.6170    -2.4620 h1         1 J03       0.049033
     35 H15        -12.6640    15.8070    -1.1440 h1         1 J03       0.049033
@<TRIPOS>BOND
     1     1    14 1   
     2     1    21 1   
     3     2     3 1   
     4     2    12 1   
     5     2    17 1   
     6     3     4 ar  
     7     3    10 ar  
     8     4     5 ar  
     9     5     6 1   
    10     5     7 ar  
    11     6    22 1   
    12     6    23 1   
    13     7     8 ar  
    14     8     9 1   
    15     8    10 ar  
    16     9    20 1   
    17    10    11 1   
    18    11    12 2   
    19    12    24 1   
    20    13    17 1   
    21    13    18 1   
    22    13    25 1   
    23    13    26 1   
    24    14    15 1   
    25    14    27 1   
    26    14    28 1   
    27    15    16 1   
    28    15    18 1   
    29    15    29 1   
    30    16    17 1   
    31    17    30 1   
    32    18    19 1   
    33    18    31 1   
    34    19    32 1   
    35    20    33 1   
    36    20    34 1   
    37    20    35 1   
@<TRIPOS>SUBSTRUCTURE
     1 J03         1 TEMP              0 ****  ****    0 ROOT
