@<TRIPOS>MOLECULE
J03
   35    37     1     0     0
SMALL
bcc


@<TRIPOS>ATOM
      1 O5         -18.2890    21.6080     4.2260 oh         1 J03      -0.574800
      2 N9         -15.1460    20.9070     1.1230 na         1 J03      -0.267000
      3 C4         -14.1040    20.0980     0.7750 ca         1 J03       0.497800
      4 N3         -12.8150    20.2810     1.0190 nb         1 J03      -0.803000
      5 C2         -12.0590    19.3000     0.5360 ca         1 J03       0.953900
      6 N2         -10.7290    19.3610     0.7660 nv         1 J03      -0.944500
      7 N1         -12.4900    18.2160    -0.1420 nb         1 J03      -0.884000
      8 C6         -13.7760    18.0710    -0.3640 ca         1 J03       0.780600
      9 O6         -14.2360    17.0230    -1.0210 os         1 J03      -0.404100
     10 C5         -14.6830    19.0330     0.0970 ca         1 J03      -0.228200
     11 N7         -16.0490    19.1750     0.0370 nc         1 J03      -0.514100
     12 C8         -16.2820    20.2900     0.6570 cd         1 J03       0.398700
     13 C9         -15.7320    23.3260     1.2690 c5         1 J03      -0.121400
     14 C10        -18.0170    22.6820     3.3610 c3         1 J03       0.126400
     15 C7         -16.5440    23.0290     3.4640 c5         1 J03       0.105100
     16 O4         -15.7220    21.9120     3.1390 os         1 J03      -0.386600
     17 C1         -15.0670    22.1130     1.9110 c5         1 J03       0.259800
     18 C3         -16.1410    24.1370     2.4840 c5         1 J03       0.117100
     19 O3         -15.0080    24.8500     2.9230 oh         1 J03      -0.583800
     20 C          -13.3050    16.0540    -1.4920 c3         1 J03       0.132700
     21 H1         -19.2230    21.3930     4.1530 ho         1 J03       0.406000
     22 H2         -10.1240    18.7630     0.2310 hn         1 J03       0.436800
     23 H3         -10.3400    20.2340     1.0780 hn         1 J03       0.436800
     24 H4         -17.2620    20.7170     0.8110 h5         1 J03       0.062800
     25 H5         -15.0600    23.8630     0.6010 hc         1 J03       0.076700
     26 H6         -16.6140    23.0380     0.6950 hc         1 J03       0.076700
     27 H7         -18.5890    23.5800     3.6290 h1         1 J03       0.018200
     28 H8         -18.2760    22.4410     2.3210 h1         1 J03       0.018200
     29 H9         -16.3270    23.3220     4.4980 h1         1 J03       0.082700
     30 H10        -13.9990    22.2890     2.0720 h2         1 J03       0.111700
     31 H11        -16.9800    24.8100     2.2700 h1         1 J03       0.053700
     32 H12        -15.2270    25.3000     3.7450 ho         1 J03       0.411000
     33 H13        -13.8970    15.3010    -2.0040 h1         1 J03       0.049033
     34 H14        -12.5910    16.4910    -2.1900 h1         1 J03       0.049033
     35 H15        -12.7590    15.5900    -0.6700 h1         1 J03       0.049033
@<TRIPOS>BOND
     1     1    14 1   
     2     1    21 1   
     3     2     3 1   
     4     2    12 1   
     5     2    17 1   
     6     3     4 ar  
     7     3    10 ar  
     8     4     5 ar  
     9     5     6 1   
    10     5     7 ar  
    11     6    22 1   
    12     6    23 1   
    13     7     8 ar  
    14     8     9 1   
    15     8    10 ar  
    16     9    20 1   
    17    10    11 1   
    18    11    12 2   
    19    12    24 1   
    20    13    17 1   
    21    13    18 1   
    22    13    25 1   
    23    13    26 1   
    24    14    15 1   
    25    14    27 1   
    26    14    28 1   
    27    15    16 1   
    28    15    18 1   
    29    15    29 1   
    30    16    17 1   
    31    17    30 1   
    32    18    19 1   
    33    18    31 1   
    34    19    32 1   
    35    20    33 1   
    36    20    34 1   
    37    20    35 1   
@<TRIPOS>SUBSTRUCTURE
     1 J03         1 TEMP              0 ****  ****    0 ROOT
