@<TRIPOS>MOLECULE
J04
   53    55     1     0     0
SMALL
bcc


@<TRIPOS>ATOM
      1 CBB          3.2210     2.8180    -1.7400 c3         1 J04       0.117700
      2 OBA          4.1990     1.7970    -1.7320 os         1 J04      -0.283400
      3 CAU          4.1260     0.8490    -0.7860 ca         1 J04       0.167100
      4 CAT          3.1950     0.8380     0.2480 ca         1 J04      -0.230500
      5 CAV          5.0710    -0.1790    -0.8860 ca         1 J04       0.065100
      6 OAZ          5.9720    -0.1760    -1.9000 os         1 J04      -0.300900
      7 CBC          7.1700     0.5370    -1.6170 c3         1 J04       0.122700
      8 CAW          5.0800    -1.2150     0.0500 ca         1 J04       0.167100
      9 OAY          6.0230    -2.1520    -0.1270 os         1 J04      -0.283400
     10 CBD          6.0830    -3.2310     0.7870 c3         1 J04       0.117700
     11 CAX          4.1370    -1.2280     1.0790 ca         1 J04      -0.230500
     12 CAS          3.2120    -0.2000     1.1710 ca         1 J04      -0.091300
     13 CAR          2.2130    -0.2130     2.2920 c3         1 J04       0.059600
     14 NAI          0.8430    -0.4410     1.7860 na         1 J04       0.053900
     15 CAJ         -0.0720     0.5030     1.9000 ca         1 J04       0.005700
     16 CAH          0.5650    -1.6410     1.2040 ca         1 J04      -0.090300
     17 CAG         -0.6760    -1.8990     0.7220 ca         1 J04      -0.083000
     18 CAE         -1.6900    -0.9250     0.8210 ca         1 J04       0.003000
     19 CAD         -2.9990    -1.1290     0.3420 ca         1 J04      -0.118000
     20 CAF         -1.3750     0.3120     1.4290 ca         1 J04      -0.043000
     21 CAA         -2.3460     1.3250     1.5720 ca         1 J04      -0.217000
     22 CAB         -3.6190     1.1120     1.1060 ca         1 J04       0.194100
     23 OAK         -4.6330     1.9600     1.1940 os         1 J04      -0.268900
     24 CAL         -4.4070     3.2230     1.8020 c3         1 J04       0.115700
     25 CAC         -3.9220    -0.1370     0.4820 ca         1 J04       0.182100
     26 OAM         -5.2120    -0.3270     0.0690 os         1 J04      -0.422800
     27 SAN         -5.5950     0.0840    -1.4700 s6         1 J04       1.538400
     28 OAO         -7.0330     0.0580    -1.4290 o          1 J04      -0.587800
     29 OAP         -4.8660     1.2750    -1.8260 o          1 J04      -0.587800
     30 NAQ         -4.9440    -1.1530    -2.2940 n8         1 J04      -0.968700
     31 H1           3.4300     3.4380    -2.6080 h1         1 J04       0.048867
     32 H2           2.2100     2.4130    -1.8330 h1         1 J04       0.048867
     33 H3           3.2720     3.4410    -0.8430 h1         1 J04       0.048867
     34 H4           2.4610     1.6270     0.3500 ha         1 J04       0.137000
     35 H5           6.9740     1.5900    -1.4010 h1         1 J04       0.044367
     36 H6           7.7100     0.1000    -0.7740 h1         1 J04       0.044367
     37 H7           7.7970     0.4740    -2.5040 h1         1 J04       0.044367
     38 H8           6.2950    -2.8920     1.8040 h1         1 J04       0.048867
     39 H9           5.1580    -3.8130     0.7920 h1         1 J04       0.048867
     40 H10          6.8960    -3.8710     0.4530 h1         1 J04       0.048867
     41 H11          4.1220    -2.0220     1.8140 ha         1 J04       0.137000
     42 H12          2.4300    -1.0020     3.0100 h1         1 J04       0.092700
     43 H13          2.2010     0.7330     2.8290 h1         1 J04       0.092700
     44 H14          0.2270     1.4260     2.3760 h4         1 J04       0.192000
     45 H15          1.3750    -2.3520     1.1560 h4         1 J04       0.201000
     46 H16         -0.8770    -2.8590     0.2680 ha         1 J04       0.185000
     47 H17         -3.2730    -2.0680    -0.1190 ha         1 J04       0.181000
     48 H18         -2.0650     2.2500     2.0580 ha         1 J04       0.164000
     49 H19         -4.0650     3.1150     2.8330 h1         1 J04       0.062700
     50 H20         -3.6780     3.8100     1.2390 h1         1 J04       0.062700
     51 H21         -5.3620     3.7400     1.7950 h1         1 J04       0.062700
     52 H22         -5.5100    -1.9940    -2.3260 hn         1 J04       0.450300
     53 H23         -4.5660    -0.8920    -3.1970 hn         1 J04       0.450300
@<TRIPOS>BOND
     1     1     2 1   
     2     1    31 1   
     3     1    32 1   
     4     1    33 1   
     5     2     3 1   
     6     3     4 ar  
     7     3     5 ar  
     8     4    12 ar  
     9     4    34 1   
    10     5     6 1   
    11     5     8 ar  
    12     6     7 1   
    13     7    35 1   
    14     7    36 1   
    15     7    37 1   
    16     8     9 1   
    17     8    11 ar  
    18     9    10 1   
    19    10    38 1   
    20    10    39 1   
    21    10    40 1   
    22    11    12 ar  
    23    11    41 1   
    24    12    13 1   
    25    13    14 1   
    26    13    42 1   
    27    13    43 1   
    28    14    15 1   
    29    14    16 2   
    30    15    20 ar  
    31    15    44 1   
    32    16    17 ar  
    33    16    45 1   
    34    17    18 ar  
    35    17    46 1   
    36    18    19 ar  
    37    18    20 ar  
    38    19    25 ar  
    39    19    47 1   
    40    20    21 ar  
    41    21    22 ar  
    42    21    48 1   
    43    22    23 1   
    44    22    25 ar  
    45    23    24 1   
    46    24    49 1   
    47    24    50 1   
    48    24    51 1   
    49    25    26 1   
    50    26    27 1   
    51    27    28 2   
    52    27    29 2   
    53    27    30 1   
    54    30    52 1   
    55    30    53 1   
@<TRIPOS>SUBSTRUCTURE
     1 J04         1 TEMP              0 ****  ****    0 ROOT
