@<TRIPOS>MOLECULE
J04
   53    55     1     0     0
SMALL
No Charge or Current Charge


@<TRIPOS>ATOM
      1 CBB          2.8330     2.2840    -1.7540 c3         1 J04       0.140900
      2 OBA          4.0280     1.5000    -1.5890 os         1 J04      -0.306600
      3 CAU          4.1970     0.5760    -0.5700 ca         1 J04       0.167100
      4 CAT          3.1710     0.3780     0.3850 ca         1 J04      -0.212500
      5 CAV          5.4020    -0.1860    -0.4690 ca         1 J04       0.065100
      6 OAZ          6.4850    -0.0820    -1.3460 os         1 J04      -0.324100
      7 CBC          6.5510     0.8020    -2.4790 c3         1 J04       0.145900
      8 CAW          5.5380    -1.1210     0.5870 ca         1 J04       0.167100
      9 OAY          6.7150    -1.8490     0.6690 os         1 J04      -0.306600
     10 CBD          6.9570    -2.8230     1.7000 c3         1 J04       0.140900
     11 CAX          4.4970    -1.2990     1.5230 ca         1 J04      -0.212500
     12 CAS          3.3120    -0.5570     1.4240 ca         1 J04      -0.091300
     13 CAR          2.1930    -0.7640     2.4470 c3         1 J04       0.088900
     14 NAI          0.8480    -0.8660     1.8470 na         1 J04       0.075300
     15 CAJ         -0.0950     0.1500     2.0290 ca         1 J04      -0.027000
     16 CAH          0.5270    -1.9530     1.0310 ca         1 J04      -0.072300
     17 CAG         -0.7210    -2.0300     0.3840 ca         1 J04      -0.065000
     18 CAE         -1.6650    -1.0020     0.5630 ca         1 J04       0.003000
     19 CAD         -2.9160    -1.0610    -0.0770 ca         1 J04      -0.100000
     20 CAF         -1.3510     0.0960     1.3920 ca         1 J04      -0.043000
     21 CAA         -2.2880     1.1290     1.5830 ca         1 J04      -0.199000
     22 CAB         -3.5480     1.0740     0.9420 ca         1 J04       0.194100
     23 OAK         -4.5030     2.0610     1.1210 os         1 J04      -0.292100
     24 CAL         -4.2870     3.2070     1.9630 c3         1 J04       0.138900
     25 CAC         -3.8500    -0.0260     0.0990 ca         1 J04       0.182100
     26 OAM         -5.0670    -0.1270    -0.5330 os         1 J04      -0.422800
     27 SAN         -5.3650     0.8640    -1.7980 s6         1 J04       1.396800
     28 OAO         -6.6050     1.6010    -1.5690 o          1 J04      -0.517000
     29 OAP         -4.1380     1.5080    -2.2660 o          1 J04      -0.517000
     30 NAQ         -5.7520    -0.2900    -2.8720 n8         1 J04      -1.079100
     31 H1           2.9270     2.9380    -2.6290 h1         1 J04       0.048867
     32 H2           1.9590     1.6370    -1.9060 h1         1 J04       0.048867
     33 H3           2.6560     2.9180    -0.8750 h1         1 J04       0.048867
     34 H4           2.2500     0.9500     0.3320 ha         1 J04       0.119000
     35 H5           5.7540     0.5790    -3.1990 h1         1 J04       0.044367
     36 H6           6.4700     1.8510    -2.1640 h1         1 J04       0.044367
     37 H7           7.5110     0.6820    -2.9950 h1         1 J04       0.044367
     38 H8           6.9230    -2.3580     2.6930 h1         1 J04       0.048867
     39 H9           6.2110    -3.6270     1.6600 h1         1 J04       0.048867
     40 H10          7.9480    -3.2750     1.5700 h1         1 J04       0.048867
     41 H11          4.5960    -2.0150     2.3350 ha         1 J04       0.119000
     42 H12          2.3770    -1.6820     3.0190 h1         1 J04       0.092700
     43 H13          2.2090     0.0670     3.1620 h1         1 J04       0.092700
     44 H14          0.1770     0.9860     2.6740 h4         1 J04       0.174000
     45 H15          1.2800    -2.7320     0.9030 h4         1 J04       0.183000
     46 H16         -0.9470    -2.8840    -0.2510 ha         1 J04       0.167000
     47 H17         -3.1690    -1.9040    -0.7140 ha         1 J04       0.163000
     48 H18         -2.0270     1.9610     2.2320 ha         1 J04       0.146000
     49 H19         -4.0990     2.9000     3.0000 h1         1 J04       0.062700
     50 H20         -3.4330     3.7980     1.6090 h1         1 J04       0.062700
     51 H21         -5.1720     3.8540     1.9580 h1         1 J04       0.062700
     52 H22         -5.9490    -1.0480    -2.2240 hn         1 J04       0.505500
     53 H23         -6.6750     0.0450    -3.1360 hn         1 J04       0.505500
@<TRIPOS>BOND
     1     1     2 1   
     2     1    31 1   
     3     1    32 1   
     4     1    33 1   
     5     2     3 1   
     6     3     4 ar  
     7     3     5 ar  
     8     4    12 ar  
     9     4    34 1   
    10     5     6 1   
    11     5     8 ar  
    12     6     7 1   
    13     7    35 1   
    14     7    36 1   
    15     7    37 1   
    16     8     9 1   
    17     8    11 ar  
    18     9    10 1   
    19    10    38 1   
    20    10    39 1   
    21    10    40 1   
    22    11    12 ar  
    23    11    41 1   
    24    12    13 1   
    25    13    14 1   
    26    13    42 1   
    27    13    43 1   
    28    14    15 1   
    29    14    16 2   
    30    15    20 ar  
    31    15    44 1   
    32    16    17 ar  
    33    16    45 1   
    34    17    18 ar  
    35    17    46 1   
    36    18    19 ar  
    37    18    20 ar  
    38    19    25 ar  
    39    19    47 1   
    40    20    21 ar  
    41    21    22 ar  
    42    21    48 1   
    43    22    23 1   
    44    22    25 ar  
    45    23    24 1   
    46    24    49 1   
    47    24    50 1   
    48    24    51 1   
    49    25    26 1   
    50    26    27 1   
    51    27    28 2   
    52    27    29 2   
    53    27    30 1   
    54    30    52 1   
    55    30    53 1   
@<TRIPOS>SUBSTRUCTURE
     1 J04         1 TEMP              0 ****  ****    0 ROOT
