@<TRIPOS>MOLECULE
J05
   40    41     1     0     0
SMALL
No Charge or Current Charge


@<TRIPOS>ATOM
      1 C1           3.4060    -1.1110    -1.0160 ca         1 J05      -0.102300
      2 C2           3.8480    -0.7420     0.2720 ca         1 J05      -0.088500
      3 C20         -5.3560    -1.8020     0.2270 c3         1 J05      -0.046600
      4 C21         -6.6050     0.0250     1.4620 c3         1 J05      -0.046600
      5 C12         -0.5900    -0.8610     0.6580 cc         1 J05       0.200300
      6 C13          0.3570    -0.6100    -0.2850 cd         1 J05      -0.212000
      7 C14         -1.6800     0.0590     1.1460 c3         1 J05       0.090700
      8 C16         -4.1630     0.3990     0.8720 c          1 J05       0.645100
      9 C19         -5.4760    -0.2510     0.4200 c3         1 J05      -0.374000
     10 C3           4.9220     0.1520     0.4250 ca         1 J05      -0.088500
     11 C4           5.5620     0.6790    -0.7080 ca         1 J05      -0.010900
     12 C5           5.1330     0.3130    -1.9940 ca         1 J05      -0.088500
     13 C6           4.0590    -0.5810    -2.1480 ca         1 J05      -0.088500
     14 C8           2.2400    -2.0840    -1.1900 c3         1 J05       0.127900
     15 N10          0.5630    -2.6980     0.5450 nd         1 J05      -0.229800
     16 N11         -0.4520    -2.1300     1.1460 nc         1 J05      -0.323000
     17 N15         -3.0220    -0.3550     0.7170 ns         1 J05      -0.513900
     18 N9           1.0770    -1.7820    -0.3380 na         1 J05       0.111800
     19 O1          -6.0580     1.9560    -0.8600 o          1 J05      -0.685200
     20 O18         -4.1130     1.4730     1.4560 o          1 J05      -0.625100
     21 O24         -4.6670     0.2610    -1.9930 o          1 J05      -0.685200
     22 S22         -5.8550     0.5350    -1.1720 s6         1 J05       1.311600
     23 Br7          7.0230     1.8950    -0.5000 br         1 J05      -0.105100
     24 H1           3.3620    -1.1470     1.1570 ha         1 J05       0.127000
     25 H2          -6.3240    -2.2410    -0.0450 hc         1 J05       0.034867
     26 H3          -4.6450    -2.0690    -0.5660 hc         1 J05       0.034867
     27 H4          -5.0290    -2.2870     1.1560 hc         1 J05       0.034867
     28 H5          -6.3470    -0.4120     2.4350 hc         1 J05       0.034867
     29 H6          -6.7690     1.0990     1.6120 hc         1 J05       0.034867
     30 H7          -7.5570    -0.4150     1.1410 hc         1 J05       0.034867
     31 H8           0.5670     0.2640    -0.8880 h4         1 J05       0.163000
     32 H9          -1.6550     0.0930     2.2430 h1         1 J05       0.061200
     33 H10         -1.4850     1.0720     0.7720 h1         1 J05       0.061200
     34 H11          5.2570     0.4350     1.4210 ha         1 J05       0.130000
     35 H12          5.6310     0.7200    -2.8710 ha         1 J05       0.130000
     36 H13          3.7350    -0.8590    -3.1490 ha         1 J05       0.127000
     37 H14          1.9020    -2.0760    -2.2340 h1         1 J05       0.075200
     38 H15          2.5870    -3.1000    -0.9650 h1         1 J05       0.075200
     39 H16         -3.1290    -1.2490     0.2570 hn         1 J05       0.353500
     40 O2          -7.0710    -0.1540    -1.6300 o          1 J05      -0.685200
@<TRIPOS>BOND
     1     1     2 ar  
     2     1    13 ar  
     3     1    14 1   
     4     2    10 ar  
     5     2    24 1   
     6     3     9 1   
     7     3    25 1   
     8     3    26 1   
     9     3    27 1   
    10     4     9 1   
    11     4    28 1   
    12     4    29 1   
    13     4    30 1   
    14     5     6 2   
    15     5     7 1   
    16     5    16 1   
    17     6    18 1   
    18     6    31 1   
    19     7    17 1   
    20     7    32 1   
    21     7    33 1   
    22     8     9 1   
    23     8    17 1   
    24     8    20 2   
    25     9    22 1   
    26    10    11 ar  
    27    10    34 1   
    28    11    12 ar  
    29    11    23 1   
    30    12    13 ar  
    31    12    35 1   
    32    13    36 1   
    33    14    18 1   
    34    14    37 1   
    35    14    38 1   
    36    15    16 2   
    37    15    18 1   
    38    17    39 1   
    39    19    22 1   
    40    21    22 1   
    41    22    40 1   
@<TRIPOS>SUBSTRUCTURE
     1 J05         1 TEMP              0 ****  ****    0 ROOT
