@<TRIPOS>MOLECULE
J05
   40    41     1     0     0
SMALL
abcg2


@<TRIPOS>ATOM
      1 C1           3.2920    -1.2350    -0.7540 ca         1 J05      -0.102300
      2 C2           3.8000    -0.9950     0.5200 ca         1 J05      -0.088500
      3 C20         -4.9990    -1.9680     0.0940 c3         1 J05      -0.046600
      4 C21         -6.2420    -0.5800     1.7660 c3         1 J05      -0.046600
      5 C12         -0.7380    -0.0450     0.1380 cc         1 J05       0.200300
      6 C13          0.1890    -0.3190    -0.8340 cd         1 J05      -0.212000
      7 C14         -1.8200     0.9820     0.1440 c3         1 J05       0.090700
      8 C16         -3.9790     0.1520     0.9640 c          1 J05       0.645100
      9 C19         -5.2920    -0.5460     0.5760 c3         1 J05      -0.374000
     10 C3           4.9660    -0.2680     0.6940 ca         1 J05      -0.088500
     11 C4           5.6300     0.2210    -0.4230 ca         1 J05      -0.010900
     12 C5           5.1440    -0.0050    -1.7010 ca         1 J05      -0.088500
     13 C6           3.9710    -0.7320    -1.8550 ca         1 J05      -0.088500
     14 C8           2.0260    -2.0310    -0.9310 c3         1 J05       0.127900
     15 N10          0.4270    -1.7110     0.8450 nd         1 J05      -0.229800
     16 N11         -0.5480    -0.9260     1.1450 nc         1 J05      -0.323000
     17 N15         -3.1300     0.4020    -0.0440 ns         1 J05      -0.513900
     18 N9           0.8800    -1.3620    -0.3460 na         1 J05       0.111800
     19 O1          -6.1530     1.7900    -0.2890 o          1 J05      -0.685200
     20 O18         -3.7230     0.4140     2.1300 o          1 J05      -0.625100
     21 O24         -5.2620     0.2230    -1.9750 o          1 J05      -0.685200
     22 S22         -6.1120     0.3980    -0.7720 s6         1 J05       1.311600
     23 BR7          7.2230     1.2080    -0.1960 br         1 J05      -0.105100
     24 H1           3.2870    -1.3790     1.3930 ha         1 J05       0.127000
     25 H2          -5.9230    -2.4670    -0.2010 hc         1 J05       0.034867
     26 H3          -4.3140    -1.9990    -0.7500 hc         1 J05       0.034867
     27 H4          -4.5570    -2.5480     0.9060 hc         1 J05       0.034867
     28 H5          -5.7910    -1.1220     2.5960 hc         1 J05       0.034867
     29 H6          -6.4980     0.4190     2.1170 hc         1 J05       0.034867
     30 H7          -7.1620    -1.0930     1.4940 hc         1 J05       0.034867
     31 H8           0.3930     0.1280    -1.7930 h4         1 J05       0.163000
     32 H9          -1.8100     1.5360     1.0820 h1         1 J05       0.061200
     33 H10         -1.6400     1.6990    -0.6560 h1         1 J05       0.061200
     34 H11          5.3470    -0.0940     1.6910 ha         1 J05       0.130000
     35 H12          5.6600     0.3750    -2.5720 ha         1 J05       0.130000
     36 H13          3.5900    -0.9070    -2.8540 ha         1 J05       0.127000
     37 H14          1.8200    -2.2020    -1.9860 h1         1 J05       0.075200
     38 H15          2.1050    -3.0040    -0.4480 h1         1 J05       0.075200
     39 H16         -3.4340     0.2160    -0.9890 hn         1 J05       0.353500
     40 O2          -7.4420    -0.2130    -0.9380 o          1 J05      -0.685200
@<TRIPOS>BOND
     1     1     2 ar  
     2     1    13 ar  
     3     1    14 1   
     4     2    10 ar  
     5     2    24 1   
     6     3     9 1   
     7     3    25 1   
     8     3    26 1   
     9     3    27 1   
    10     4     9 1   
    11     4    28 1   
    12     4    29 1   
    13     4    30 1   
    14     5     6 2   
    15     5     7 1   
    16     5    16 1   
    17     6    18 1   
    18     6    31 1   
    19     7    17 1   
    20     7    32 1   
    21     7    33 1   
    22     8     9 1   
    23     8    17 1   
    24     8    20 2   
    25     9    22 1   
    26    10    11 ar  
    27    10    34 1   
    28    11    12 ar  
    29    11    23 1   
    30    12    13 ar  
    31    12    35 1   
    32    13    36 1   
    33    14    18 1   
    34    14    37 1   
    35    14    38 1   
    36    15    16 2   
    37    15    18 1   
    38    17    39 1   
    39    19    22 1   
    40    21    22 1   
    41    22    40 1   
@<TRIPOS>SUBSTRUCTURE
     1 J05         1 TEMP              0 ****  ****    0 ROOT
