@<TRIPOS>MOLECULE
J07
   51    54     1     0     0
SMALL
abcg2


@<TRIPOS>ATOM
      1 C01         -6.8520     2.2070     2.7050 c3         1 J07      -0.109100
      2 C02         -6.8240     2.0340     1.1980 c3         1 J07       0.105000
      3 N03         -5.9510     0.9330     0.8380 ns         1 J07      -0.508900
      4 C04         -5.6270     0.6980    -0.4610 c          1 J07       0.638100
      5 O05         -5.9230     1.4980    -1.3430 o          1 J07      -0.641100
      6 N06         -4.9680    -0.4750    -0.7370 n          1 J07      -0.403800
      7 C07         -4.3890    -0.6370    -2.0600 c6         1 J07       0.095500
      8 C08         -2.9300    -0.1910    -2.0900 c6         1 J07      -0.127400
      9 C09         -2.1190    -0.9290    -1.0290 c6         1 J07       0.247500
     10 C10         -2.7890    -0.8080     0.3420 c6         1 J07      -0.127400
     11 C11         -4.2450    -1.2500     0.2580 c6         1 J07       0.095500
     12 N12         -0.7600    -0.4330    -1.0260 nu         1 J07      -0.917100
     13 C13          0.2970    -1.1030    -0.5290 ca         1 J07       0.394900
     14 N14          1.4480    -0.4320    -0.4680 nb         1 J07      -0.266000
     15 C15          2.5380    -1.0380    -0.0080 ca         1 J07       0.302800
     16 C16          2.4350    -2.3760     0.4100 ca         1 J07      -0.073000
     17 C17          1.2000    -2.9870     0.3030 ca         1 J07       0.161900
     18 N18          0.1260    -2.3770    -0.1620 nb         1 J07      -0.248000
     19 CL1          3.7390    -3.2760     1.1010 cl         1 J07      -0.192000
     20 C20          3.7430    -0.2290     0.0360 cc         1 J07      -0.244000
     21 C21          3.7890     1.2140     0.0690 ca         1 J07      -0.053800
     22 C22          2.8310     2.2340     0.1310 ca         1 J07      -0.048000
     23 C23          3.2560     3.5480     0.1850 ca         1 J07      -0.140000
     24 C24          4.6200     3.8780     0.1760 ca         1 J07      -0.092000
     25 C25          5.5870     2.8950     0.1170 ca         1 J07      -0.126000
     26 C26          5.1520     1.5730     0.0670 ca         1 J07      -0.064200
     27 N27          5.8820     0.4170     0.0140 na         1 J07      -0.211700
     28 C28          5.0560    -0.6500     0.0010 cd         1 J07      -0.104100
     29 H011        -7.5180     3.0250     2.9760 hc         1 J07       0.040367
     30 H012        -7.2160     1.3070     3.2050 hc         1 J07       0.040367
     31 H013        -5.8600     2.4330     3.0960 hc         1 J07       0.040367
     32 H021        -7.8420     1.8700     0.8270 h1         1 J07       0.051200
     33 H022        -6.4600     2.9470     0.7290 h1         1 J07       0.051200
     34 HN03        -5.9260     0.1740     1.4970 hn         1 J07       0.302500
     35 H071        -4.4550    -1.6960    -2.3280 h1         1 J07       0.059700
     36 H072        -4.9730    -0.0860    -2.7910 h1         1 J07       0.059700
     37 H081        -2.5110    -0.3830    -3.0810 hc         1 J07       0.059700
     38 H082        -2.8780     0.8890    -1.9170 hc         1 J07       0.059700
     39 H09         -2.0860    -1.9880    -1.2980 h1         1 J07       0.078700
     40 H101        -2.2590    -1.4210     1.0740 hc         1 J07       0.059700
     41 H102        -2.7400     0.2300     0.6850 hc         1 J07       0.059700
     42 H111        -4.7190    -1.2090     1.2360 h1         1 J07       0.059700
     43 H112        -4.2950    -2.3010    -0.0420 h1         1 J07       0.059700
     44 HN12        -0.6180     0.5510    -1.1910 hn         1 J07       0.502000
     45 H17          1.0790    -4.0190     0.6200 h4         1 J07       0.030100
     46 H22          1.7770     2.0000     0.1260 ha         1 J07       0.130000
     47 H23          2.5210     4.3410     0.2310 ha         1 J07       0.111000
     48 H24          4.9170     4.9180     0.2150 ha         1 J07       0.111000
     49 H25          6.6420     3.1390     0.1140 ha         1 J07       0.113000
     50 HN27         6.8860     0.3580    -0.0200 hn         1 J07       0.353000
     51 H28          5.4670    -1.6420    -0.0670 h4         1 J07       0.224000
@<TRIPOS>BOND
     1     1     2 1   
     2     1    29 1   
     3     1    30 1   
     4     1    31 1   
     5     2     3 1   
     6     2    32 1   
     7     2    33 1   
     8     3     4 1   
     9     3    34 1   
    10     4     5 2   
    11     4     6 1   
    12     6     7 1   
    13     6    11 1   
    14     7     8 1   
    15     7    35 1   
    16     7    36 1   
    17     8     9 1   
    18     8    37 1   
    19     8    38 1   
    20     9    10 1   
    21     9    12 1   
    22     9    39 1   
    23    10    11 1   
    24    10    40 1   
    25    10    41 1   
    26    11    42 1   
    27    11    43 1   
    28    12    13 1   
    29    12    44 1   
    30    13    14 ar  
    31    13    18 ar  
    32    14    15 ar  
    33    15    16 ar  
    34    15    20 1   
    35    16    17 ar  
    36    16    19 1   
    37    17    18 ar  
    38    17    45 1   
    39    20    21 1   
    40    20    28 2   
    41    21    22 ar  
    42    21    26 ar  
    43    22    23 ar  
    44    22    46 1   
    45    23    24 ar  
    46    23    47 1   
    47    24    25 ar  
    48    24    48 1   
    49    25    26 ar  
    50    25    49 1   
    51    26    27 1   
    52    27    28 1   
    53    27    50 1   
    54    28    51 1   
@<TRIPOS>SUBSTRUCTURE
     1 J07         1 TEMP              0 ****  ****    0 ROOT
