@<TRIPOS>MOLECULE
J07
   51    54     1     0     0
SMALL
No Charge or Current Charge


@<TRIPOS>ATOM
      1 C01         -8.5590     0.6270     2.5230 c3         1 J07      -0.109100
      2 C02         -8.2560     0.7380     1.0210 c3         1 J07       0.105000
      3 N03         -6.8250     0.6050     0.7520 ns         1 J07      -0.508900
      4 C04         -6.2640     0.6500    -0.5010 c          1 J07       0.638100
      5 O05         -6.9490     0.8100    -1.5000 o          1 J07      -0.641100
      6 N06         -4.8610     0.5020    -0.5650 n          1 J07      -0.403800
      7 C07         -4.2200     0.3080    -1.9020 c6         1 J07       0.095500
      8 C08         -2.6920     0.5270    -1.9450 c6         1 J07      -0.127400
      9 C09         -1.9910    -0.2370    -0.8150 c6         1 J07       0.247500
     10 C10         -2.5380     0.2830     0.5230 c6         1 J07      -0.127400
     11 C11         -4.0650     0.0740     0.6320 c6         1 J07       0.095500
     12 N12         -0.5420     0.0010    -0.8970 nu         1 J07      -0.917100
     13 C13          0.4500    -0.7550    -0.2880 ca         1 J07       0.394900
     14 N14          1.6890    -0.2550    -0.4000 nb         1 J07      -0.266000
     15 C15          2.6940    -0.9560     0.1670 ca         1 J07       0.302800
     16 C16          2.4220    -2.1590     0.8670 ca         1 J07      -0.073000
     17 C17          1.0850    -2.5890     0.9200 ca         1 J07       0.161900
     18 N18          0.0920    -1.8900     0.3390 nb         1 J07      -0.248000
     19 Cl1          3.6600    -3.0960     1.7140 cl         1 J07      -0.192000
     20 C20          4.0450    -0.3930     0.0420 cc         1 J07      -0.244000
     21 C21          4.4510     0.9820    -0.0410 ca         1 J07      -0.053800
     22 C22          3.7470     2.1710     0.2000 ca         1 J07      -0.048000
     23 C23          4.4420     3.3900     0.0470 ca         1 J07      -0.140000
     24 C24          5.8050     3.3940    -0.3320 ca         1 J07      -0.092000
     25 C25          6.4840     2.1780    -0.5600 ca         1 J07      -0.126000
     26 C26          5.7710     0.9810    -0.4020 ca         1 J07      -0.064200
     27 N27          6.2400    -0.3130    -0.5780 na         1 J07      -0.211700
     28 C28          5.1360    -1.1690    -0.3400 cd         1 J07      -0.104100
     29 H011        -9.6360     0.7290     2.7010 hc         1 J07       0.040367
     30 H012        -8.2370    -0.3460     2.9130 hc         1 J07       0.040367
     31 H013        -8.0420     1.4160     3.0820 hc         1 J07       0.040367
     32 H021        -8.7950    -0.0510     0.4790 h1         1 J07       0.051200
     33 H022        -8.6000     1.7120     0.6480 h1         1 J07       0.051200
     34 HN03        -6.1980     0.4740     1.5330 hn         1 J07       0.302500
     35 H071        -4.4380    -0.7170    -2.2360 h1         1 J07       0.059700
     36 H072        -4.6840     0.9860    -2.6340 h1         1 J07       0.059700
     37 H081        -2.3050     0.2020    -2.9210 hc         1 J07       0.059700
     38 H082        -2.4800     1.6020    -1.8640 hc         1 J07       0.059700
     39 H09         -2.2190    -1.3110    -0.9220 h1         1 J07       0.078700
     40 H101        -2.0420    -0.2230     1.3620 hc         1 J07       0.059700
     41 H102        -2.3110     1.3530     0.6270 hc         1 J07       0.059700
     42 H111        -4.4060     0.6170     1.5240 h1         1 J07       0.059700
     43 H112        -4.2620    -0.9940     0.8070 h1         1 J07       0.059700
     44 HN12        -0.2150     0.8500    -1.3570 hn         1 J07       0.502000
     45 H17          0.8010    -3.5000     1.4450 h4         1 J07       0.030100
     46 H22          2.7020     2.1590     0.5000 ha         1 J07       0.130000
     47 H23          3.9260     4.3320     0.2250 ha         1 J07       0.111000
     48 H24          6.3330     4.3380    -0.4470 ha         1 J07       0.111000
     49 H25          7.5320     2.1720    -0.8510 ha         1 J07       0.113000
     50 HN27         7.1730    -0.5890    -0.8700 hn         1 J07       0.353000
     51 H28          5.2060    -2.2440    -0.4910 h4         1 J07       0.224000
@<TRIPOS>BOND
     1     1     2 1   
     2     1    29 1   
     3     1    30 1   
     4     1    31 1   
     5     2     3 1   
     6     2    32 1   
     7     2    33 1   
     8     3     4 1   
     9     3    34 1   
    10     4     5 2   
    11     4     6 1   
    12     6     7 1   
    13     6    11 1   
    14     7     8 1   
    15     7    35 1   
    16     7    36 1   
    17     8     9 1   
    18     8    37 1   
    19     8    38 1   
    20     9    10 1   
    21     9    12 1   
    22     9    39 1   
    23    10    11 1   
    24    10    40 1   
    25    10    41 1   
    26    11    42 1   
    27    11    43 1   
    28    12    13 1   
    29    12    44 1   
    30    13    14 ar  
    31    13    18 ar  
    32    14    15 ar  
    33    15    16 ar  
    34    15    20 1   
    35    16    17 ar  
    36    16    19 1   
    37    17    18 ar  
    38    17    45 1   
    39    20    21 1   
    40    20    28 2   
    41    21    22 ar  
    42    21    26 ar  
    43    22    23 ar  
    44    22    46 1   
    45    23    24 ar  
    46    23    47 1   
    47    24    25 ar  
    48    24    48 1   
    49    25    26 ar  
    50    25    49 1   
    51    26    27 1   
    52    27    28 1   
    53    27    50 1   
    54    28    51 1   
@<TRIPOS>SUBSTRUCTURE
     1 J07         1 TEMP              0 ****  ****    0 ROOT
