@<TRIPOS>MOLECULE
J08
   52    55     1     0     0
SMALL
No Charge or Current Charge


@<TRIPOS>ATOM
      1 C10         -3.4680     1.4010    -1.0160 cc         1 J08       0.373800
      2 C13         -5.2890     0.5990    -1.8820 cd         1 J08       0.248900
      3 C15         -6.2630    -0.7000     0.0490 ca         1 J08      -0.008000
      4 C17         -7.0620    -1.9240     2.0150 ca         1 J08      -0.104500
      5 C20         -7.4090    -1.1320    -0.6560 ca         1 J08      -0.102000
      6 C21          1.2670     0.6220    -0.1080 ca         1 J08      -0.288000
      7 C22          2.6140     0.9530     0.1510 ca         1 J08       0.208100
      8 C24          3.3190    -1.4070    -0.0930 c3         1 J08       0.218900
      9 C26          5.0760    -2.6920     1.2280 ca         1 J08      -0.043000
     10 C28          7.0200    -3.5350     0.0530 ca         1 J08       0.346900
     11 N01          4.7690     3.9400     0.3730 nv         1 J08      -1.037200
     12 N03          5.2380     1.9360     1.2410 n2         1 J08      -0.840100
     13 C04          2.9780     2.3020     0.3890 ca         1 J08      -0.282900
     14 C05          1.9600     3.2830     0.4040 ca         1 J08      -0.007000
     15 C06          0.6260     2.9370     0.1460 ca         1 J08      -0.231000
     16 C07          0.2810     1.6080    -0.1160 ca         1 J08       0.368000
     17 N08         -1.0330     1.2340    -0.3730 nu         1 J08      -0.946200
     18 C09         -2.1440     2.1280    -0.8110 c3         1 J08       0.190500
     19 N11         -4.0910     0.6620    -0.0380 na         1 J08      -0.290500
     20 C12         -5.2480     0.1540    -0.5830 cc         1 J08      -0.144000
     21 N14         -4.1740     1.3750    -2.1430 nd         1 J08      -0.644000
     22 C16         -6.1030    -1.1070     1.3920 ca         1 J08      -0.102000
     23 C18         -8.1960    -2.3450     1.3040 ca         1 J08      -0.104000
     24 C19         -8.3690    -1.9490    -0.0320 ca         1 J08      -0.104500
     25 C25          4.6270    -2.1700     0.0020 ca         1 J08      -0.151300
     26 C27          6.2950    -3.3870     1.2480 ca         1 J08      -0.166000
     27 N29          6.5960    -3.0340    -1.1300 nb         1 J08      -0.667000
     28 C30          5.4200    -2.3630    -1.1460 ca         1 J08       0.356900
     29 H1          -6.0380     0.4150    -2.6430 h4         1 J08       0.042100
     30 H2          -6.9260    -2.2290     3.0500 ha         1 J08       0.116000
     31 H3          -7.5710    -0.8410    -1.6890 ha         1 J08       0.111000
     32 H4           0.9700    -0.4020    -0.3050 ha         1 J08       0.117000
     33 H5           2.6110    -1.8010     0.6480 h1         1 J08       0.044200
     34 H6           2.8850    -1.5440    -1.0930 h1         1 J08       0.044200
     35 H8           7.9690    -4.0700     0.0430 h4         1 J08       0.020100
     36 H9           4.2630     4.3520    -0.4010 hn         1 J08       0.463500
     37 H10          5.7730     4.0680     0.3650 hn         1 J08       0.463500
     38 H11          4.8340     0.9890     1.2140 hn         1 J08       0.389400
     39 H12          2.1910     4.3230     0.6290 ha         1 J08       0.126000
     40 H13         -0.1340     3.7110     0.1630 ha         1 J08       0.119000
     41 H14         -1.1590     0.2370    -0.5520 hn         1 J08       0.475000
     42 H15         -1.8700     2.6260    -1.7510 h1         1 J08       0.059700
     43 H16         -2.3080     2.9150    -0.0630 h1         1 J08       0.059700
     44 H17         -3.7400     0.5270     0.9020 hn         1 J08       0.352000
     45 H19         -5.2330    -0.7920     1.9620 ha         1 J08       0.111000
     46 H20         -8.9390    -2.9780     1.7860 ha         1 J08       0.117000
     47 H21         -9.2470    -2.2750    -0.5850 ha         1 J08       0.116000
     48 H22          6.6810    -3.8070     2.1720 ha         1 J08       0.127000
     49 H23          5.1040    -1.9690    -2.1110 h4         1 J08       0.019100
     50 O23          3.5950    -0.0190     0.1550 os         1 J08      -0.343100
     51 C02          4.3790     2.7000     0.7120 ce         1 J08       0.678800
     52 H7           4.4960    -2.5620     2.1410 ha         1 J08       0.124000
@<TRIPOS>BOND
     1     1    18 1   
     2     1    19 1   
     3     1    21 2   
     4     2    20 2   
     5     2    21 1   
     6     2    29 1   
     7     3     5 ar  
     8     3    20 1   
     9     3    22 ar  
    10     4    22 ar  
    11     4    23 ar  
    12     4    30 1   
    13     5    24 ar  
    14     5    31 1   
    15     6     7 ar  
    16     6    16 ar  
    17     6    32 1   
    18     7    13 ar  
    19     7    50 1   
    20     8    25 1   
    21     8    33 1   
    22     8    34 1   
    23     8    50 1   
    24     9    25 ar  
    25     9    26 ar  
    26     9    52 1   
    27    10    26 ar  
    28    10    27 ar  
    29    10    35 1   
    30    11    36 1   
    31    11    37 1   
    32    11    51 1   
    33    12    38 1   
    34    12    51 2   
    35    13    14 ar  
    36    13    51 1   
    37    14    15 ar  
    38    14    39 1   
    39    15    16 ar  
    40    15    40 1   
    41    16    17 1   
    42    17    18 1   
    43    17    41 1   
    44    18    42 1   
    45    18    43 1   
    46    19    20 1   
    47    19    44 1   
    48    22    45 1   
    49    23    24 ar  
    50    23    46 1   
    51    24    47 1   
    52    25    28 ar  
    53    26    48 1   
    54    27    28 ar  
    55    28    49 1   
@<TRIPOS>SUBSTRUCTURE
     1 J08         1 TEMP              0 ****  ****    0 ROOT
