@<TRIPOS>MOLECULE
J08
   52    55     1     0     0
SMALL
bcc


@<TRIPOS>ATOM
      1 C10         -3.3890     1.3400    -0.6640 cc         1 J08       0.373800
      2 C13         -5.0280     0.6260    -1.8240 cd         1 J08       0.314200
      3 C15         -6.2910    -0.6930    -0.0000 ca         1 J08      -0.008000
      4 C17         -7.1330    -2.2080     1.6870 ca         1 J08      -0.122500
      5 C20         -7.5210    -0.7850    -0.6590 ca         1 J08      -0.120000
      6 C21          1.3060     0.5350    -0.1830 ca         1 J08      -0.306000
      7 C22          2.6270     0.8860     0.0400 ca         1 J08       0.208100
      8 C24          3.3390    -1.3870    -0.1370 c3         1 J08       0.195700
      9 C26          5.2920    -2.2030     1.2270 ca         1 J08      -0.061000
     10 C28          6.9820    -3.4900     0.1480 ca         1 J08       0.412200
     11 N01          4.7270     3.8360    -0.0800 nv         1 J08      -0.926800
     12 N03          5.2210     2.0830     1.3040 n2         1 J08      -0.840100
     13 C04          2.9840     2.2310     0.2650 ca         1 J08      -0.282900
     14 C05          1.9600     3.1720     0.2470 ca         1 J08      -0.025000
     15 C06          0.6320     2.8380     0.0440 ca         1 J08      -0.249000
     16 C07          0.2870     1.5020    -0.1830 ca         1 J08       0.229600
     17 N08         -0.9970     1.1050    -0.4400 nu         1 J08      -0.752600
     18 C09         -2.1220     1.9890    -0.2230 c3         1 J08       0.190500
     19 N11         -4.1670     0.6090     0.1620 na         1 J08      -0.290900
     20 C12         -5.2340     0.1400    -0.5550 cc         1 J08      -0.158600
     21 N14         -3.8860     1.3650    -1.8760 nd         1 J08      -0.644000
     22 C16         -6.1110    -1.4190     1.1790 ca         1 J08      -0.120000
     23 C18         -8.3490    -2.2960     1.0220 ca         1 J08      -0.122000
     24 C19         -8.5350    -1.5820    -0.1550 ca         1 J08      -0.122500
     25 C25          4.6300    -2.1310     0.0060 ca         1 J08      -0.216600
     26 C27          6.4890    -2.8930     1.3020 ca         1 J08      -0.249300
     27 N29          6.3620    -3.4300    -1.0230 nb         1 J08      -0.667000
     28 C30          5.2160    -2.7620    -1.0830 ca         1 J08       0.422200
     29 H1          -5.6410     0.4670    -2.6970 h4         1 J08       0.042100
     30 H2          -6.9740    -2.7620     2.6030 ha         1 J08       0.134000
     31 H3          -7.6890    -0.2200    -1.5670 ha         1 J08       0.129000
     32 H4           1.0320    -0.4940    -0.3790 ha         1 J08       0.135000
     33 H5           2.6220    -1.7190     0.6210 h1         1 J08       0.044200
     34 H6           2.8990    -1.5760    -1.1210 h1         1 J08       0.044200
     35 H8           7.9160    -4.0400     0.1760 h4         1 J08       0.020100
     36 H9           4.3030     4.0440    -0.9680 hn         1 J08       0.408300
     37 H10          5.6990     4.0930    -0.0200 hn         1 J08       0.408300
     38 H11          4.8010     1.2800     1.7550 hn         1 J08       0.389400
     39 H12          2.2050     4.2120     0.4270 ha         1 J08       0.144000
     40 H13         -0.1160     3.6170     0.0700 ha         1 J08       0.137000
     41 H14         -1.1820     0.1260    -0.2900 hn         1 J08       0.419800
     42 H15         -1.9920     2.8960    -0.8150 h1         1 J08       0.059700
     43 H16         -2.2080     2.3010     0.8260 h1         1 J08       0.059700
     44 H17         -4.0090     0.4800     1.1500 hn         1 J08       0.301700
     45 H19         -5.1650    -1.3920     1.7070 ha         1 J08       0.129000
     46 H20         -9.1430    -2.9140     1.4180 ha         1 J08       0.135000
     47 H21         -9.4800    -1.6360    -0.6800 ha         1 J08       0.134000
     48 H22          7.0330    -2.9760     2.2330 ha         1 J08       0.145000
     49 H23          4.7300    -2.7230    -2.0530 h4         1 J08       0.019100
     50 O23          3.6320    -0.0090     0.0300 os         1 J08      -0.319900
     51 C02          4.3820     2.6600     0.5320 ce         1 J08       0.678800
     52 H7           4.8760    -1.7310     2.1090 ha         1 J08       0.142000
@<TRIPOS>BOND
     1     1    18 1   
     2     1    19 1   
     3     1    21 2   
     4     2    20 2   
     5     2    21 1   
     6     2    29 1   
     7     3     5 ar  
     8     3    20 1   
     9     3    22 ar  
    10     4    22 ar  
    11     4    23 ar  
    12     4    30 1   
    13     5    24 ar  
    14     5    31 1   
    15     6     7 ar  
    16     6    16 ar  
    17     6    32 1   
    18     7    13 ar  
    19     7    50 1   
    20     8    25 1   
    21     8    33 1   
    22     8    34 1   
    23     8    50 1   
    24     9    25 ar  
    25     9    26 ar  
    26     9    52 1   
    27    10    26 ar  
    28    10    27 ar  
    29    10    35 1   
    30    11    36 1   
    31    11    37 1   
    32    11    51 1   
    33    12    38 1   
    34    12    51 2   
    35    13    14 ar  
    36    13    51 1   
    37    14    15 ar  
    38    14    39 1   
    39    15    16 ar  
    40    15    40 1   
    41    16    17 1   
    42    17    18 1   
    43    17    41 1   
    44    18    42 1   
    45    18    43 1   
    46    19    20 1   
    47    19    44 1   
    48    22    45 1   
    49    23    24 ar  
    50    23    46 1   
    51    24    47 1   
    52    25    28 ar  
    53    26    48 1   
    54    27    28 ar  
    55    28    49 1   
@<TRIPOS>SUBSTRUCTURE
     1 J08         1 TEMP              0 ****  ****    0 ROOT
