@<TRIPOS>MOLECULE
J0A
   52    55     1     0     0
SMALL
No Charge or Current Charge


@<TRIPOS>ATOM
      1 CAY         -3.5870     3.5220    -0.2070 c3         1 J0A       0.150900
      2 OAX         -4.1450     2.2540     0.1830 os         1 J0A      -0.336100
      3 CAB         -3.4020     1.0840     0.2050 ca         1 J0A       0.142100
      4 CAA         -2.0320     1.0600    -0.1440 ca         1 J0A      -0.188000
      5 CAF         -1.2940    -0.1480    -0.1000 ca         1 J0A       0.026000
      6 CAJ          0.0830    -0.2040    -0.4490 ca         1 J0A      -0.055800
      7 CAN          0.8720     0.9830    -0.9410 ce         1 J0A      -0.161200
      8 CAM          2.2260     1.0630    -0.8480 c2         1 J0A      -0.195200
      9 CAL          2.8880    -0.1180    -0.1300 c5         1 J0A      -0.019800
     10 CAR          2.7710     0.0590     1.4240 c3         1 J0A      -0.068100
     11 CAQ          4.3380    -0.3840    -0.6440 c5         1 J0A       0.221300
     12 OAS          5.2520     0.4780     0.0670 os         1 J0A      -0.556700
     13 SAT          6.8200     0.5360    -0.3680 s6         1 J0A       1.399800
     14 OAU          7.6590     0.1540     0.7620 o          1 J0A      -0.555000
     15 OAV          7.0190     0.0160    -1.7200 o          1 J0A      -0.555000
     16 NAW          6.8990     2.1420    -0.4350 n8         1 J0A      -1.058100
     17 CAP          4.5810    -1.8810    -0.2150 c5         1 J0A      -0.104400
     18 CAO          3.1470    -2.5210    -0.1200 c5         1 J0A      -0.064400
     19 CAK          2.2640    -1.4090    -0.7500 c5         1 J0A      -0.034400
     20 CAI          0.7920    -1.4240    -0.3350 ca         1 J0A      -0.038300
     21 CAH          0.1230    -2.5920     0.0770 ca         1 J0A      -0.110000
     22 CAG         -1.2390    -2.5440     0.4040 ca         1 J0A      -0.080000
     23 CAE         -1.9460    -1.3320     0.3230 ca         1 J0A      -0.061000
     24 CAD         -3.3100    -1.3100     0.6680 ca         1 J0A      -0.073000
     25 CAC         -4.0390    -0.1150     0.5990 ca         1 J0A       0.115100
     26 OAZ         -5.3680    -0.1260     0.9570 os         1 J0A      -0.431800
     27 SBA         -6.4960    -0.1540    -0.2320 s6         1 J0A       1.391800
     28 OBB         -7.6550     0.6580     0.1340 o          1 J0A      -0.548500
     29 OBC         -5.8850    -0.0750    -1.5580 o          1 J0A      -0.548500
     30 NBD         -6.9960    -1.6900    -0.0750 n8         1 J0A      -1.034100
     31 H1          -3.2110     3.4820    -1.2380 h1         1 J0A       0.047367
     32 H2          -4.3520     4.3060    -0.1550 h1         1 J0A       0.047367
     33 H3          -2.7630     3.8070     0.4590 h1         1 J0A       0.047367
     34 H4          -1.5410     1.9800    -0.4310 ha         1 J0A       0.124000
     35 H5           0.3170     1.7820    -1.4300 ha         1 J0A       0.180000
     36 H6           2.7870     1.9200    -1.2260 ha         1 J0A       0.185000
     37 H7           1.7290     0.0630     1.7600 hc         1 J0A       0.044367
     38 H8           3.2930    -0.7230     1.9850 hc         1 J0A       0.044367
     39 H9           3.2070     1.0160     1.7350 hc         1 J0A       0.044367
     40 H10          4.4170    -0.2340    -1.7310 h1         1 J0A       0.062700
     41 H11          5.9800     2.3190    -0.0380 hn         1 J0A       0.485000
     42 H12          7.5310     2.2910     0.3450 hn         1 J0A       0.485000
     43 H13          5.2020    -2.4000    -0.9540 hc         1 J0A       0.068200
     44 H14          5.1020    -1.9560     0.7470 hc         1 J0A       0.068200
     45 H15          3.0760    -3.4650    -0.6720 hc         1 J0A       0.052700
     46 H16          2.8730    -2.7370     0.9190 hc         1 J0A       0.052700
     47 H17          2.3480    -1.4220    -1.8450 hc         1 J0A       0.063700
     48 H18          0.6480    -3.5410     0.1360 ha         1 J0A       0.118000
     49 H19         -1.7430    -3.4540     0.7230 ha         1 J0A       0.116000
     50 H20         -3.8090    -2.2200     0.9910 ha         1 J0A       0.129000
     51 H21         -7.0220    -1.9520    -1.0560 hn         1 J0A       0.483000
     52 H22         -7.9760    -1.5140     0.1240 hn         1 J0A       0.483000
@<TRIPOS>BOND
     1     1     2 1   
     2     1    31 1   
     3     1    32 1   
     4     1    33 1   
     5     2     3 1   
     6     3     4 ar  
     7     3    25 ar  
     8     4     5 ar  
     9     4    34 1   
    10     5     6 ar  
    11     5    23 ar  
    12     6     7 1   
    13     6    20 ar  
    14     7     8 2   
    15     7    35 1   
    16     8     9 1   
    17     8    36 1   
    18     9    10 1   
    19     9    11 1   
    20     9    19 1   
    21    10    37 1   
    22    10    38 1   
    23    10    39 1   
    24    11    12 1   
    25    11    17 1   
    26    11    40 1   
    27    12    13 1   
    28    13    14 2   
    29    13    15 2   
    30    13    16 1   
    31    16    41 1   
    32    16    42 1   
    33    17    18 1   
    34    17    43 1   
    35    17    44 1   
    36    18    19 1   
    37    18    45 1   
    38    18    46 1   
    39    19    20 1   
    40    19    47 1   
    41    20    21 ar  
    42    21    22 ar  
    43    21    48 1   
    44    22    23 ar  
    45    22    49 1   
    46    23    24 ar  
    47    24    25 ar  
    48    24    50 1   
    49    25    26 1   
    50    26    27 1   
    51    27    28 2   
    52    27    29 2   
    53    27    30 1   
    54    30    51 1   
    55    30    52 1   
@<TRIPOS>SUBSTRUCTURE
     1 J0A         1 TEMP              0 ****  ****    0 ROOT
