@<TRIPOS>MOLECULE
J0A
   52    55     1     0     0
SMALL
bcc


@<TRIPOS>ATOM
      1 CAY         -3.5880     3.3600    -0.1170 c3         1 J0A       0.127700
      2 OAX         -4.1480     2.0990     0.1980 os         1 J0A      -0.312900
      3 CAB         -3.3520     1.0260     0.1730 ca         1 J0A       0.142100
      4 CAA         -2.0010     1.0280    -0.0610 ca         1 J0A      -0.206000
      5 CAF         -1.2530    -0.1770    -0.0620 ca         1 J0A       0.026000
      6 CAJ          0.1530    -0.2070    -0.2830 ca         1 J0A      -0.055800
      7 CAN          0.9320     1.0120    -0.5320 ce         1 J0A      -0.111200
      8 CAM          2.2560     1.0540    -0.3400 c2         1 J0A      -0.145200
      9 CAL          2.9560    -0.1760     0.1550 c5         1 J0A      -0.019800
     10 CAR          2.8640    -0.2260     1.6880 c3         1 J0A      -0.068100
     11 CAQ          4.3890    -0.4080    -0.3160 c5         1 J0A       0.198100
     12 OAS          5.2950     0.4000     0.4560 os         1 J0A      -0.533500
     13 SAT          6.6900     0.8330    -0.1710 s6         1 J0A       1.541400
     14 OAU          7.3570     1.4860     0.9310 o          1 J0A      -0.625800
     15 OAV          7.3230    -0.2860    -0.8340 o          1 J0A      -0.625800
     16 NAW          6.2100     1.8670    -1.3470 n8         1 J0A      -0.947700
     17 CAP          4.6160    -1.9210    -0.1360 c5         1 J0A      -0.104400
     18 CAO          3.2050    -2.5560    -0.1720 c5         1 J0A      -0.064400
     19 CAK          2.2960    -1.3800    -0.5200 c5         1 J0A      -0.034400
     20 CAI          0.8280    -1.4210    -0.2420 ca         1 J0A      -0.038300
     21 CAH          0.1410    -2.6190     0.0020 ca         1 J0A      -0.128000
     22 CAG         -1.2120    -2.6110     0.2160 ca         1 J0A      -0.098000
     23 CAE         -1.9300    -1.4000     0.1910 ca         1 J0A      -0.061000
     24 CAD         -3.3250    -1.3820     0.4250 ca         1 J0A      -0.091000
     25 CAC         -4.0070    -0.2090     0.4230 ca         1 J0A       0.115100
     26 OAZ         -5.3490    -0.1980     0.7390 os         1 J0A      -0.431800
     27 SBA         -6.4500     0.0820    -0.4290 s6         1 J0A       1.533400
     28 OBB         -7.2880     1.1610     0.0260 o          1 J0A      -0.619300
     29 OBC         -5.7330     0.1780    -1.6800 o          1 J0A      -0.619300
     30 NBD         -7.3160    -1.2920    -0.2720 n8         1 J0A      -0.923700
     31 H1          -3.1520     3.3660    -1.1190 h1         1 J0A       0.047367
     32 H2          -4.4030     4.0770    -0.0790 h1         1 J0A       0.047367
     33 H3          -2.8220     3.6540     0.6050 h1         1 J0A       0.047367
     34 H4          -1.4950     1.9660    -0.2390 ha         1 J0A       0.142000
     35 H5           0.4210     1.9090    -0.8570 ha         1 J0A       0.130000
     36 H6           2.8050     1.9780    -0.4850 ha         1 J0A       0.135000
     37 H7           1.8230    -0.2910     2.0060 hc         1 J0A       0.044367
     38 H8           3.3940    -1.0800     2.1100 hc         1 J0A       0.044367
     39 H9           3.2830     0.6770     2.1310 hc         1 J0A       0.044367
     40 H10          4.4680    -0.1260    -1.3710 h1         1 J0A       0.062700
     41 H11          5.9570     2.7880    -1.0040 hn         1 J0A       0.429800
     42 H12          6.8710     1.9250    -2.1130 hn         1 J0A       0.429800
     43 H13          5.2630    -2.3160    -0.9170 hc         1 J0A       0.068200
     44 H14          5.1070    -2.1160     0.8180 hc         1 J0A       0.068200
     45 H15          3.1330    -3.3580    -0.9060 hc         1 J0A       0.052700
     46 H16          2.9470    -2.9860     0.7970 hc         1 J0A       0.052700
     47 H17          2.3950    -1.2050    -1.6040 hc         1 J0A       0.063700
     48 H18          0.6870    -3.5540     0.0230 ha         1 J0A       0.136000
     49 H19         -1.7420    -3.5350     0.4140 ha         1 J0A       0.134000
     50 H20         -3.8470    -2.3100     0.6260 ha         1 J0A       0.147000
     51 H21         -6.9220    -2.0890    -0.7590 hn         1 J0A       0.427800
     52 H22         -8.2940    -1.1610    -0.5050 hn         1 J0A       0.427800
@<TRIPOS>BOND
     1     1     2 1   
     2     1    31 1   
     3     1    32 1   
     4     1    33 1   
     5     2     3 1   
     6     3     4 ar  
     7     3    25 ar  
     8     4     5 ar  
     9     4    34 1   
    10     5     6 ar  
    11     5    23 ar  
    12     6     7 1   
    13     6    20 ar  
    14     7     8 2   
    15     7    35 1   
    16     8     9 1   
    17     8    36 1   
    18     9    10 1   
    19     9    11 1   
    20     9    19 1   
    21    10    37 1   
    22    10    38 1   
    23    10    39 1   
    24    11    12 1   
    25    11    17 1   
    26    11    40 1   
    27    12    13 1   
    28    13    14 2   
    29    13    15 2   
    30    13    16 1   
    31    16    41 1   
    32    16    42 1   
    33    17    18 1   
    34    17    43 1   
    35    17    44 1   
    36    18    19 1   
    37    18    45 1   
    38    18    46 1   
    39    19    20 1   
    40    19    47 1   
    41    20    21 ar  
    42    21    22 ar  
    43    21    48 1   
    44    22    23 ar  
    45    22    49 1   
    46    23    24 ar  
    47    24    25 ar  
    48    24    50 1   
    49    25    26 1   
    50    26    27 1   
    51    27    28 2   
    52    27    29 2   
    53    27    30 1   
    54    30    51 1   
    55    30    52 1   
@<TRIPOS>SUBSTRUCTURE
     1 J0A         1 TEMP              0 ****  ****    0 ROOT
