@<TRIPOS>MOLECULE
J0B
   38    40     1     0     0
SMALL
No Charge or Current Charge


@<TRIPOS>ATOM
      1 C12          7.4660     0.0820     1.5510 c3         1 J0B      -0.077100
      2 C1          -0.2730     1.5640    -0.2950 ca         1 J0B       0.169500
      3 C5           1.8250     0.2190    -0.6740 c6         1 J0B       0.080300
      4 C3          -2.5160     2.2600     0.0900 ca         1 J0B       0.465900
      5 C10          4.9580    -0.2790     0.8870 c          1 J0B       0.602100
      6 N2           0.3720     0.3440    -0.4020 na         1 J0B      -0.018100
      7 C6           2.0820    -0.2660    -2.1270 c6         1 J0B      -0.087400
      8 C11          6.4470    -0.4550     0.5200 c3         1 J0B      -0.152400
      9 N           -2.1450     3.5450     0.0140 nb         1 J0B      -0.311000
     10 C           -0.8280     3.7760    -0.2180 ca         1 J0B       0.203900
     11 O            4.6320     0.3250     1.9010 o          1 J0B      -0.593100
     12 C2          -1.5790     1.2480    -0.0630 ca         1 J0B      -0.375900
     13 C4          -1.6600    -0.1870    -0.0440 cc         1 J0B       0.422800
     14 C7           3.5980    -0.4560    -2.3880 c6         1 J0B      -0.099400
     15 C8           4.2350    -1.3790    -1.3210 c6         1 J0B       0.097000
     16 C9           2.5150    -0.7280     0.3430 c6         1 J0B       0.080000
     17 I           -3.3390    -1.4510     0.2580 i          1 J0B      -0.093200
     18 N1           0.1410     2.8430    -0.3800 nb         1 J0B      -0.229000
     19 N3          -0.4690    -0.7580    -0.2530 nd         1 J0B      -0.493100
     20 N5           3.9710    -0.8540     0.0480 n          1 J0B      -0.411800
     21 H1           7.3350     1.1600     1.7020 hc         1 J0B       0.042700
     22 H2           7.3430    -0.4220     2.5170 hc         1 J0B       0.042700
     23 H3           8.4910    -0.0920     1.2020 hc         1 J0B       0.042700
     24 H4           2.2830     1.2120    -0.5600 h1         1 J0B       0.097700
     25 H5          -4.3920     2.8190     0.6300 hn         1 J0B       0.506500
     26 H6          -4.1150     1.1150     0.6490 hn         1 J0B       0.506500
     27 H7           1.5600    -1.2170    -2.3010 hc         1 J0B       0.060200
     28 H8           1.6650     0.4550    -2.8440 hc         1 J0B       0.060200
     29 H9           6.6070     0.0010    -0.4630 hc         1 J0B       0.055200
     30 H10          6.6220    -1.5150     0.3010 hc         1 J0B       0.055200
     31 H11         -0.5180     4.8180    -0.2820 h5         1 J0B       0.049100
     32 H12          3.7580    -0.8780    -3.3900 hc         1 J0B       0.052200
     33 H13          4.1030     0.5210    -2.3750 hc         1 J0B       0.052200
     34 H14          3.7960    -2.3840    -1.4040 h1         1 J0B       0.053700
     35 H15          5.3070    -1.4860    -1.5260 h1         1 J0B       0.053700
     36 H16          2.3470    -0.3550     1.3630 h1         1 J0B       0.078200
     37 H17          2.0550    -1.7260     0.2880 h1         1 J0B       0.078200
     38 N4          -3.8260     2.0330     0.3210 nv         1 J0B      -1.065900
@<TRIPOS>BOND
     1     1     8 1   
     2     1    21 1   
     3     1    22 1   
     4     1    23 1   
     5     2     6 1   
     6     2    12 ar  
     7     2    18 ar  
     8     3     6 1   
     9     3     7 1   
    10     3    16 1   
    11     3    24 1   
    12     4     9 ar  
    13     4    12 ar  
    14     4    38 1   
    15     5     8 1   
    16     5    11 2   
    17     5    20 1   
    18     6    19 1   
    19     7    14 1   
    20     7    27 1   
    21     7    28 1   
    22     8    29 1   
    23     8    30 1   
    24     9    10 ar  
    25    10    18 ar  
    26    10    31 1   
    27    12    13 1   
    28    13    17 1   
    29    13    19 2   
    30    14    15 1   
    31    14    32 1   
    32    14    33 1   
    33    15    20 1   
    34    15    34 1   
    35    15    35 1   
    36    16    20 1   
    37    16    36 1   
    38    16    37 1   
    39    25    38 1   
    40    26    38 1   
@<TRIPOS>SUBSTRUCTURE
     1 J0B         1 TEMP              0 ****  ****    0 ROOT
