@<TRIPOS>MOLECULE
J0B
   38    40     1     0     0
SMALL
bcc


@<TRIPOS>ATOM
      1 C12          7.2020     0.3570     1.3970 c3         1 J0B      -0.077100
      2 C1          -0.1940     1.5110    -0.2260 ca         1 J0B       0.497800
      3 C5           1.8710     0.1830    -0.7530 c6         1 J0B       0.051000
      4 C3          -2.4040     2.2680     0.2490 ca         1 J0B       0.794200
      5 C10          4.8070    -0.2400     0.8410 c          1 J0B       0.669100
      6 N2           0.4540     0.3660    -0.5160 na         1 J0B       0.011200
      7 C6           2.1410    -0.3650    -2.1510 c6         1 J0B      -0.087400
      8 C11          6.2660    -0.3730     0.4500 c3         1 J0B      -0.152400
      9 N           -1.8710     3.4880     0.3580 nb         1 J0B      -0.837000
     10 C           -0.5620     3.6430     0.1740 ca         1 J0B       0.729900
     11 O            4.4750     0.4050     1.8270 o          1 J0B      -0.593100
     12 C2          -1.5440     1.1870    -0.0630 ca         1 J0B      -0.506500
     13 C4          -1.5770    -0.2100    -0.2840 cc         1 J0B       0.422800
     14 C7           3.6290    -0.6400    -2.3440 c6         1 J0B      -0.099400
     15 C8           4.1800    -1.5030    -1.2160 c6         1 J0B       0.097000
     16 C9           2.4790    -0.7240     0.3210 c6         1 J0B       0.080000
     17 I           -3.2070    -1.4940    -0.2330 i          1 J0B      -0.093200
     18 N1           0.3410     2.7290    -0.1150 nb         1 J0B      -0.755000
     19 N3          -0.3900    -0.6780    -0.5500 nd         1 J0B      -0.493100
     20 N5           3.8960    -0.8840     0.0690 n          1 J0B      -0.478800
     21 H1           7.0100     1.4290     1.4080 hc         1 J0B       0.042700
     22 H2           7.1130    -0.0100     2.4190 hc         1 J0B       0.042700
     23 H3           8.2340     0.2090     1.0810 hc         1 J0B       0.042700
     24 H4           2.3100     1.1790    -0.6560 h1         1 J0B       0.097700
     25 H5          -4.2620     2.9510     0.6710 hn         1 J0B       0.451300
     26 H6          -4.1850     1.2540     0.3990 hn         1 J0B       0.451300
     27 H7           1.5770    -1.2930    -2.2870 hc         1 J0B       0.060200
     28 H8           1.7810     0.3420    -2.9010 hc         1 J0B       0.060200
     29 H9           6.4060     0.0050    -0.5670 hc         1 J0B       0.055200
     30 H10          6.5310    -1.4330     0.4070 hc         1 J0B       0.055200
     31 H11         -0.1980     4.6600     0.2770 h5         1 J0B       0.049100
     32 H12          3.7920    -1.1410    -3.3000 hc         1 J0B       0.052200
     33 H13          4.1860     0.3010    -2.3770 hc         1 J0B       0.052200
     34 H14          3.7100    -2.4900    -1.2320 h1         1 J0B       0.053700
     35 H15          5.2470    -1.6640    -1.3400 h1         1 J0B       0.053700
     36 H16          2.3190    -0.3080     1.3120 h1         1 J0B       0.078200
     37 H17          2.0000    -1.7070     0.2880 h1         1 J0B       0.078200
     38 N4          -3.7140     2.1400     0.4390 nv         1 J0B      -0.955500
@<TRIPOS>BOND
     1     1     8 1   
     2     1    21 1   
     3     1    22 1   
     4     1    23 1   
     5     2     6 1   
     6     2    12 ar  
     7     2    18 ar  
     8     3     6 1   
     9     3     7 1   
    10     3    16 1   
    11     3    24 1   
    12     4     9 ar  
    13     4    12 ar  
    14     4    38 1   
    15     5     8 1   
    16     5    11 2   
    17     5    20 1   
    18     6    19 1   
    19     7    14 1   
    20     7    27 1   
    21     7    28 1   
    22     8    29 1   
    23     8    30 1   
    24     9    10 ar  
    25    10    18 ar  
    26    10    31 1   
    27    12    13 1   
    28    13    17 1   
    29    13    19 2   
    30    14    15 1   
    31    14    32 1   
    32    14    33 1   
    33    15    20 1   
    34    15    34 1   
    35    15    35 1   
    36    16    20 1   
    37    16    36 1   
    38    16    37 1   
    39    25    38 1   
    40    26    38 1   
@<TRIPOS>SUBSTRUCTURE
     1 J0B         1 TEMP              0 ****  ****    0 ROOT
