@<TRIPOS>MOLECULE
J0C
   39    41     1     0     0
SMALL
No Charge or Current Charge


@<TRIPOS>ATOM
      1 C10         -1.4170   -16.1970    -3.0500 c3         1 J0C       0.235100
      2 C13          1.9810   -14.4070    -3.1140 c3         1 J0C      -0.046400
      3 C17          1.7620   -14.1230    -5.7370 c3         1 J0C      -0.048400
      4 C20          3.8950   -16.9850    -5.1810 c1         1 J0C      -0.265000
      5 C21         -3.6210   -15.3940    -1.9700 cc         1 J0C      -0.206000
      6 C2          -3.1870   -15.1360    -5.6490 c          1 J0C       0.766100
      7 C4          -5.3070   -14.1750    -5.9720 cc         1 J0C       0.891100
      8 C7          -4.6840   -14.7000    -3.8040 cc         1 J0C       0.227000
      9 C8          -3.5090   -15.1630    -4.2300 cd         1 J0C      -0.246600
     10 C9          -2.8060   -15.6070    -3.0730 cd         1 J0C      -0.062300
     11 C12          1.0010   -15.5980    -3.0310 c3         1 J0C       0.165800
     12 C14          1.7960   -13.4930    -4.3350 cx         1 J0C       0.133400
     13 C18          3.1210   -14.6580    -6.2590 c3         1 J0C       0.002700
     14 C19          3.5420   -15.9290    -5.6530 c1         1 J0C      -0.130100
     15 N3          -4.1890   -14.6010    -6.4500 nd         1 J0C      -0.785100
     16 N6          -5.6390   -14.2050    -4.6650 na         1 J0C      -0.931200
     17 N11         -0.3980   -15.1340    -3.0140 n7         1 J0C      -0.846400
     18 N15          1.1060   -12.2200    -4.1400 n2         1 J0C      -0.148700
     19 N16          2.3510   -12.1450    -4.2340 n2         1 J0C      -0.148700
     20 N22         -4.8150   -14.8260    -2.4450 na         1 J0C      -0.135000
     21 O1          -2.1490   -15.5420    -6.1470 o          1 J0C      -0.552100
     22 H1          -1.2840   -16.8310    -3.9370 h1         1 J0C       0.038700
     23 H2          -1.3240   -16.8460    -2.1680 h1         1 J0C       0.038700
     24 H3           3.0050   -14.7970    -3.1020 hc         1 J0C       0.054200
     25 H4           1.8840   -13.8200    -2.1920 hc         1 J0C       0.054200
     26 H5           1.4130   -13.3680    -6.4520 hc         1 J0C       0.078700
     27 H6           1.0100   -14.9200    -5.7790 hc         1 J0C       0.078700
     28 H7           4.2160   -17.9240    -4.7730 ha         1 J0C       0.251000
     29 H8          -3.4490   -15.5970    -0.9190 h4         1 J0C       0.150000
     30 H9           1.2210   -16.1750    -2.1220 h1         1 J0C       0.033700
     31 H10          1.1710   -16.2650    -3.8870 h1         1 J0C       0.033700
     32 H11          3.0450   -14.8090    -7.3430 hc         1 J0C       0.061700
     33 H12          3.9020   -13.9040    -6.1040 hc         1 J0C       0.061700
     34 H13         -5.8280   -13.5130    -7.6870 hn         1 J0C       0.495000
     35 H14         -6.7180   -12.8990    -6.3790 hn         1 J0C       0.495000
     36 H15         -6.5530   -13.9000    -4.3670 hn         1 J0C       0.498000
     37 H16         -0.5530   -14.5770    -2.1680 hn         1 J0C       0.405000
     38 H20         -5.6210   -14.5540    -1.8970 hn         1 J0C       0.349000
     39 N5          -6.2020   -13.6760    -6.7630 nv         1 J0C      -1.047200
@<TRIPOS>BOND
     1     1    10 1   
     2     1    17 1   
     3     1    22 1   
     4     1    23 1   
     5     2    11 1   
     6     2    12 1   
     7     2    24 1   
     8     2    25 1   
     9     3    12 1   
    10     3    13 1   
    11     3    26 1   
    12     3    27 1   
    13     4    14 3   
    14     4    28 1   
    15     5    10 2   
    16     5    20 1   
    17     5    29 1   
    18     6     9 1   
    19     6    15 1   
    20     6    21 2   
    21     7    15 2   
    22     7    16 1   
    23     7    39 1   
    24     8     9 2   
    25     8    16 1   
    26     8    20 1   
    27     9    10 1   
    28    11    17 1   
    29    11    30 1   
    30    11    31 1   
    31    12    18 1   
    32    12    19 1   
    33    13    14 1   
    34    13    32 1   
    35    13    33 1   
    36    16    36 1   
    37    17    37 1   
    38    18    19 2   
    39    20    38 1   
    40    34    39 1   
    41    35    39 1   
@<TRIPOS>SUBSTRUCTURE
     1 J0C         1 TEMP              0 ****  ****    0 ROOT
