@<TRIPOS>MOLECULE
J0C
   39    41     1     0     0
SMALL
bcc


@<TRIPOS>ATOM
      1 C10         -1.3930   -16.1990    -2.9550 c3         1 J0C       0.235100
      2 C13          1.9600   -14.4960    -3.1060 c3         1 J0C      -0.046400
      3 C17          1.6100   -14.2860    -5.6910 c3         1 J0C      -0.048400
      4 C20          4.1740   -16.7280    -5.1490 c1         1 J0C      -0.177500
      5 C21         -3.6410   -15.4670    -2.0260 cc         1 J0C      -0.173300
      6 C2          -3.1100   -15.0470    -5.6410 c          1 J0C       0.766100
      7 C4          -5.2030   -14.0330    -5.9780 cc         1 J0C       0.891100
      8 C7          -4.6630   -14.6820    -3.8160 cc         1 J0C       0.139300
      9 C8          -3.4300   -15.1340    -4.2330 cd         1 J0C      -0.246600
     10 C9          -2.7730   -15.6440    -3.0640 cd         1 J0C      -0.062300
     11 C12          0.9610   -15.6360    -2.9760 c3         1 J0C       0.165800
     12 C14          1.7510   -13.6460    -4.3350 cx         1 J0C       0.133400
     13 C18          2.9480   -14.6840    -6.3300 c3         1 J0C       0.002700
     14 C19          3.6220   -15.7980    -5.6750 c1         1 J0C      -0.130100
     15 N3          -4.0600   -14.4530    -6.4440 nd         1 J0C      -0.785100
     16 N6          -5.5700   -14.1320    -4.6700 na         1 J0C      -0.737600
     17 N11         -0.3980   -15.1460    -3.0630 n7         1 J0C      -0.791200
     18 N15          1.1190   -12.3450    -4.1550 n2         1 J0C      -0.148700
     19 N16          2.3240   -12.3030    -4.3110 n2         1 J0C      -0.148700
     20 N22         -4.7990   -14.8780    -2.4950 na         1 J0C      -0.186100
     21 O1          -2.0650   -15.4670    -6.1330 o          1 J0C      -0.552100
     22 H1          -1.2130   -16.9140    -3.7610 h1         1 J0C       0.038700
     23 H2          -1.3090   -16.7660    -2.0150 h1         1 J0C       0.038700
     24 H3           2.9700   -14.9120    -3.1100 hc         1 J0C       0.054200
     25 H4           1.8970   -13.8570    -2.2200 hc         1 J0C       0.054200
     26 H5           1.1240   -13.5800    -6.3680 hc         1 J0C       0.078700
     27 H6           0.9520   -15.1540    -5.6350 hc         1 J0C       0.078700
     28 H7           4.6580   -17.5520    -4.6770 ha         1 J0C       0.163500
     29 H8          -3.5360   -15.7090    -0.9810 h4         1 J0C       0.168000
     30 H9           1.1700   -16.1780    -2.0410 h1         1 J0C       0.033700
     31 H10          1.1170   -16.3600    -3.7810 h1         1 J0C       0.033700
     32 H11          2.7690   -14.9570    -7.3730 hc         1 J0C       0.061700
     33 H12          3.6180   -13.8210    -6.3550 hc         1 J0C       0.061700
     34 H13         -5.7930   -13.2730    -7.7410 hn         1 J0C       0.439800
     35 H14         -6.8690   -12.9360    -6.4610 hn         1 J0C       0.439800
     36 H15         -6.4780   -13.8280    -4.3500 hn         1 J0C       0.442800
     37 H16         -0.5590   -14.4700    -2.3240 hn         1 J0C       0.349800
     38 H20         -5.6030   -14.6400    -1.9370 hn         1 J0C       0.298700
     39 N5          -6.1130   -13.5000    -6.8150 nv         1 J0C      -0.936800
@<TRIPOS>BOND
     1     1    10 1   
     2     1    17 1   
     3     1    22 1   
     4     1    23 1   
     5     2    11 1   
     6     2    12 1   
     7     2    24 1   
     8     2    25 1   
     9     3    12 1   
    10     3    13 1   
    11     3    26 1   
    12     3    27 1   
    13     4    14 3   
    14     4    28 1   
    15     5    10 2   
    16     5    20 1   
    17     5    29 1   
    18     6     9 1   
    19     6    15 1   
    20     6    21 2   
    21     7    15 2   
    22     7    16 1   
    23     7    39 1   
    24     8     9 2   
    25     8    16 1   
    26     8    20 1   
    27     9    10 1   
    28    11    17 1   
    29    11    30 1   
    30    11    31 1   
    31    12    18 1   
    32    12    19 1   
    33    13    14 1   
    34    13    32 1   
    35    13    33 1   
    36    16    36 1   
    37    17    37 1   
    38    18    19 2   
    39    20    38 1   
    40    34    39 1   
    41    35    39 1   
@<TRIPOS>SUBSTRUCTURE
     1 J0C         1 TEMP              0 ****  ****    0 ROOT
