@<TRIPOS>MOLECULE
J0D
   39    42     1     0     0
SMALL
abcg2


@<TRIPOS>ATOM
      1 C01        -52.8790    88.5610   -79.9120 c3         1 J0D       0.050900
      2 C03        -52.6900    90.6280   -81.3190 ca         1 J0D      -0.012200
      3 C04        -53.7730    91.3370   -80.8030 ca         1 J0D      -0.104000
      4 C05        -54.0380    92.6030   -81.3100 ca         1 J0D      -0.058000
      5 C06        -53.2470    93.1650   -82.3140 ca         1 J0D      -0.098000
      6 C07        -52.1680    92.4620   -82.8350 ca         1 J0D      -0.037000
      7 C08        -51.9050    91.1970   -82.3290 ca         1 J0D      -0.208000
      8 C10        -51.1690    88.8980   -81.6590 cc         1 J0D       0.347500
      9 C11        -50.6450    87.6280   -81.4620 ce         1 J0D      -0.458600
     10 C12        -49.5400    87.0100   -82.0750 cd         1 J0D       0.203800
     11 C13        -48.6650    87.6510   -82.9760 cd         1 J0D      -0.319000
     12 C14        -47.6200    86.9890   -83.5600 cc         1 J0D       0.103000
     13 C16        -48.1320    84.9800   -82.4340 ca         1 J0D       0.291000
     14 C17        -47.8360    83.6310   -82.1720 ca         1 J0D      -0.148000
     15 C18        -48.6070    82.9100   -81.2900 ca         1 J0D      -0.031000
     16 C19        -49.6930    83.5140   -80.6470 ca         1 J0D      -0.111000
     17 C20        -49.9920    84.8330   -80.8980 ca         1 J0D      -0.053000
     18 C21        -49.2310    85.6130   -81.7930 ca         1 J0D      -0.108800
     19 N02        -52.2460    89.3590   -80.9580 na         1 J0D      -0.174500
     20 N15        -47.3470    85.6970   -83.3230 na         1 J0D      -0.581200
     21 S09        -50.6330    90.1020   -82.8070 ss         1 J0D       0.147800
     22 H1         -53.6280    89.1610   -79.4090 h1         1 J0D       0.070033
     23 H2         -53.3560    87.6810   -80.3430 h1         1 J0D       0.070033
     24 H3         -52.1320    88.2510   -79.1830 h1         1 J0D       0.070033
     25 H4         -54.4030    90.9210   -80.0300 ha         1 J0D       0.135000
     26 H5         -54.8780    93.1590   -80.9150 ha         1 J0D       0.139000
     27 H6         -53.4750    94.1520   -82.6920 ha         1 J0D       0.140000
     28 H7         -51.5490    92.8840   -83.6150 ha         1 J0D       0.140000
     29 H8         -51.1960    87.0390   -80.7510 ha         1 J0D       0.200000
     30 H10        -48.7640    88.6920   -83.2290 ha         1 J0D       0.212000
     31 H11        -46.9590    87.4930   -84.2490 h4         1 J0D       0.226000
     32 H12        -47.0010    83.1540   -82.6600 ha         1 J0D       0.135000
     33 H13        -48.3680    81.8720   -81.0970 ha         1 J0D       0.142000
     34 H14        -50.2990    82.9470   -79.9530 ha         1 J0D       0.141000
     35 H15        -50.8360    85.2700   -80.3870 ha         1 J0D       0.128000
     36 H16        -46.5600    84.2190   -84.6000 h1         1 J0D       0.076033
     37 H17        -45.7550    85.7990   -84.6590 h1         1 J0D       0.076033
     38 H18        -45.4810    84.7210   -83.2770 h1         1 J0D       0.076033
     39 C22        -46.2140    85.0640   -84.0060 c3         1 J0D       0.185100
@<TRIPOS>BOND
     1     1    19 1   
     2     1    22 1   
     3     1    23 1   
     4     1    24 1   
     5     2     3 ar  
     6     2     7 ar  
     7     2    19 1   
     8     3     4 ar  
     9     3    25 1   
    10     4     5 ar  
    11     4    26 1   
    12     5     6 ar  
    13     5    27 1   
    14     6     7 ar  
    15     6    28 1   
    16     7    21 1   
    17     8     9 1   
    18     8    19 2   
    19     8    21 1   
    20     9    10 2   
    21     9    29 1   
    22    10    11 1   
    23    10    18 1   
    24    11    12 2   
    25    11    30 1   
    26    12    20 1   
    27    12    31 1   
    28    13    14 ar  
    29    13    18 ar  
    30    13    20 1   
    31    14    15 ar  
    32    14    32 1   
    33    15    16 ar  
    34    15    33 1   
    35    16    17 ar  
    36    16    34 1   
    37    17    18 ar  
    38    17    35 1   
    39    20    39 1   
    40    36    39 1   
    41    37    39 1   
    42    38    39 1   
@<TRIPOS>SUBSTRUCTURE
     1 J0D         1 TEMP              0 ****  ****    0 ROOT
