@<TRIPOS>MOLECULE
J0D
   39    42     1     0     0
SMALL
No Charge or Current Charge


@<TRIPOS>ATOM
      1 C01        -52.3420    88.9410   -79.5860 c3         1 J0D       0.050900
      2 C03        -52.6440    90.6270   -81.4020 ca         1 J0D      -0.012200
      3 C04        -53.3130    91.5820   -80.6120 ca         1 J0D      -0.104000
      4 C05        -53.7040    92.8020   -81.1980 ca         1 J0D      -0.058000
      5 C06        -53.4290    93.0570   -82.5580 ca         1 J0D      -0.098000
      6 C07        -52.7620    92.0940   -83.3390 ca         1 J0D      -0.037000
      7 C08        -52.3800    90.8840   -82.7360 ca         1 J0D      -0.208000
      8 C10        -51.5840    88.6670   -82.0210 cc         1 J0D       0.347500
      9 C11        -51.0230    87.3280   -81.8740 ce         1 J0D      -0.458600
     10 C12        -49.7740    86.7950   -82.1240 cd         1 J0D       0.203800
     11 C13        -48.7580    87.6990   -82.5580 cd         1 J0D      -0.319000
     12 C14        -47.4830    87.2960   -82.9210 cc         1 J0D       0.103000
     13 C16        -48.1320    84.9890   -82.3390 ca         1 J0D       0.291000
     14 C17        -47.7350    83.6450   -82.1170 ca         1 J0D      -0.148000
     15 C18        -48.6040    82.7160   -81.5250 ca         1 J0D      -0.031000
     16 C19        -49.8850    83.1160   -81.1350 ca         1 J0D      -0.111000
     17 C20        -50.2920    84.4430   -81.3300 ca         1 J0D      -0.053000
     18 C21        -49.4210    85.3870   -81.9330 ca         1 J0D      -0.108800
     19 N02        -52.1920    89.3830   -80.9860 na         1 J0D      -0.174500
     20 N15        -47.2450    85.9080   -82.9530 na         1 J0D      -0.581200
     21 S09        -51.5380    89.5560   -83.5640 ss         1 J0D       0.147800
     22 H1         -51.9000    89.6870   -78.9130 h1         1 J0D       0.070033
     23 H2         -53.4060    88.8230   -79.3480 h1         1 J0D       0.070033
     24 H3         -51.8320    87.9830   -79.4280 h1         1 J0D       0.070033
     25 H4         -53.5310    91.3950   -79.5630 ha         1 J0D       0.135000
     26 H5         -54.2210    93.5500   -80.6000 ha         1 J0D       0.139000
     27 H6         -53.7340    94.0010   -83.0060 ha         1 J0D       0.140000
     28 H7         -52.5490    92.2850   -84.3890 ha         1 J0D       0.140000
     29 H8         -51.7720    86.6430   -81.4950 ha         1 J0D       0.200000
     30 H10        -48.9700    88.7600   -82.6130 ha         1 J0D       0.212000
     31 H11        -46.7000    87.9700   -83.2650 h4         1 J0D       0.226000
     32 H12        -46.7470    83.2930   -82.3910 ha         1 J0D       0.135000
     33 H13        -48.2810    81.6890   -81.3660 ha         1 J0D       0.142000
     34 H14        -50.5610    82.4010   -80.6700 ha         1 J0D       0.141000
     35 H15        -51.2860    84.7120   -80.9890 ha         1 J0D       0.128000
     36 H16        -46.2940    84.5510   -84.3040 h1         1 J0D       0.076033
     37 H17        -45.5620    86.1680   -84.2460 h1         1 J0D       0.076033
     38 H18        -45.2960    85.0380   -82.8960 h1         1 J0D       0.076033
     39 C22        -46.0300    85.3830   -83.6370 c3         1 J0D       0.185100
@<TRIPOS>BOND
     1     1    19 1   
     2     1    22 1   
     3     1    23 1   
     4     1    24 1   
     5     2     3 ar  
     6     2     7 ar  
     7     2    19 1   
     8     3     4 ar  
     9     3    25 1   
    10     4     5 ar  
    11     4    26 1   
    12     5     6 ar  
    13     5    27 1   
    14     6     7 ar  
    15     6    28 1   
    16     7    21 1   
    17     8     9 1   
    18     8    19 2   
    19     8    21 1   
    20     9    10 2   
    21     9    29 1   
    22    10    11 1   
    23    10    18 1   
    24    11    12 2   
    25    11    30 1   
    26    12    20 1   
    27    12    31 1   
    28    13    14 ar  
    29    13    18 ar  
    30    13    20 1   
    31    14    15 ar  
    32    14    32 1   
    33    15    16 ar  
    34    15    33 1   
    35    16    17 ar  
    36    16    34 1   
    37    17    18 ar  
    38    17    35 1   
    39    20    39 1   
    40    36    39 1   
    41    37    39 1   
    42    38    39 1   
@<TRIPOS>SUBSTRUCTURE
     1 J0D         1 TEMP              0 ****  ****    0 ROOT
