@<TRIPOS>MOLECULE
J0E
   49    52     1     0     0
SMALL
bcc


@<TRIPOS>ATOM
      1 N1          -0.4430     0.4980     0.3300 na         1 J0E       0.012200
      2 N2          -3.7500    -1.1270    -0.0850 n          1 J0E      -0.478800
      3 C3          -1.8230     0.1820     0.6280 c6         1 J0E       0.055000
      4 N4          -0.5450     2.8790     0.0430 nb         1 J0E      -0.756000
      5 C5          -3.4210    -0.7830     2.3080 c6         1 J0E      -0.099400
      6 C6          -3.9090    -1.7380     1.2240 c6         1 J0E       0.097000
      7 C8          -6.1780    -0.9250    -0.3880 c3         1 J0E      -0.152400
      8 C11          1.6460     0.1020     0.0510 cc         1 J0E       0.445500
      9 C12          2.8700    -0.7000    -0.0260 ca         1 J0E      -0.142900
     10 C13          4.0380    -0.2940     0.6170 ca         1 J0E      -0.072000
     11 C14          5.1890    -1.0640     0.5660 ca         1 J0E      -0.199500
     12 C15          5.1910    -2.2690    -0.1310 ca         1 J0E       0.148100
     13 C16          4.0250    -2.6940    -0.7670 ca         1 J0E      -0.199500
     14 C17          2.8830    -1.9160    -0.7110 ca         1 J0E      -0.072000
     15 C18          0.2660     3.8770    -0.2380 ca         1 J0E       0.724900
     16 C            2.2020     2.6580    -0.4660 ca         1 J0E       0.785200
     17 O           -4.5470     0.0080    -1.8640 o          1 J0E      -0.594100
     18 C1           1.4640     1.5040    -0.1130 ca         1 J0E      -0.514500
     19 C10         -2.3720    -0.8120    -0.4010 c6         1 J0E       0.081000
     20 C2           0.0960     1.7070     0.0890 ca         1 J0E       0.492800
     21 C4          -1.9800    -0.3590     2.0470 c6         1 J0E      -0.089400
     22 C7          -4.7600    -0.6320    -0.8430 c          1 J0E       0.670100
     23 C9          -7.2290    -0.3620    -1.3290 c3         1 J0E      -0.077100
     24 N3           0.4910    -0.4660     0.3120 nd         1 J0E      -0.528100
     25 N5           1.5720     3.8360    -0.4980 nb         1 J0E      -0.839000
     26 O1           6.2770    -3.0570    -0.2200 oh         1 J0E      -0.491100
     27 H1          -2.3720     1.1210     0.5300 h1         1 J0E       0.095700
     28 H2          -4.0740     0.0940     2.3290 hc         1 J0E       0.052200
     29 H3          -3.4980    -1.2660     3.2840 hc         1 J0E       0.052200
     30 H4          -4.9410    -2.0260     1.3960 h1         1 J0E       0.053200
     31 H5          -3.3180    -2.6590     1.2460 h1         1 J0E       0.053200
     32 H6          -6.3070    -2.0060    -0.2890 hc         1 J0E       0.054700
     33 H7          -6.3290    -0.5180     0.6160 hc         1 J0E       0.054700
     34 H8           4.0510     0.6220     1.1950 ha         1 J0E       0.143000
     35 H9           6.0820    -0.7260     1.0810 ha         1 J0E       0.142000
     36 H10          4.0200    -3.6300    -1.3110 ha         1 J0E       0.142000
     37 H11          1.9890    -2.2540    -1.2180 ha         1 J0E       0.143000
     38 H12         -0.1830     4.8640    -0.2770 h5         1 J0E       0.047100
     39 H13          3.9410     3.4880    -1.0860 hn         1 J0E       0.446800
     40 H14          3.9980     1.7790    -0.9130 hn         1 J0E       0.446800
     41 H15         -1.7820    -1.7330    -0.3720 h1         1 J0E       0.077700
     42 H16         -2.3030    -0.4020    -1.4060 h1         1 J0E       0.077700
     43 H17         -1.3150    -1.2180     2.1740 hc         1 J0E       0.060200
     44 H18         -1.6670     0.4000     2.7680 hc         1 J0E       0.060200
     45 H19         -7.1730     0.7230    -1.3940 hc         1 J0E       0.042367
     46 H20         -7.1300    -0.7650    -2.3370 hc         1 J0E       0.042367
     47 H21         -8.2230    -0.6210    -0.9650 hc         1 J0E       0.042367
     48 H22          7.0180    -2.6670     0.2560 ho         1 J0E       0.427000
     49 N            3.5010     2.6400    -0.7670 nv         1 J0E      -0.957500
@<TRIPOS>BOND
     1     1     3 1   
     2     1    20 1   
     3     1    24 1   
     4     2     6 1   
     5     2    19 1   
     6     2    22 1   
     7     3    19 1   
     8     3    21 1   
     9     3    27 1   
    10     4    15 ar  
    11     4    20 ar  
    12     5     6 1   
    13     5    21 1   
    14     5    28 1   
    15     5    29 1   
    16     6    30 1   
    17     6    31 1   
    18     7    22 1   
    19     7    23 1   
    20     7    32 1   
    21     7    33 1   
    22     8     9 1   
    23     8    18 1   
    24     8    24 2   
    25     9    10 ar  
    26     9    14 ar  
    27    10    11 ar  
    28    10    34 1   
    29    11    12 ar  
    30    11    35 1   
    31    12    13 ar  
    32    12    26 1   
    33    13    14 ar  
    34    13    36 1   
    35    14    37 1   
    36    15    25 ar  
    37    15    38 1   
    38    16    18 ar  
    39    16    25 ar  
    40    16    49 1   
    41    17    22 2   
    42    18    20 ar  
    43    19    41 1   
    44    19    42 1   
    45    21    43 1   
    46    21    44 1   
    47    23    45 1   
    48    23    46 1   
    49    23    47 1   
    50    26    48 1   
    51    39    49 1   
    52    40    49 1   
@<TRIPOS>SUBSTRUCTURE
     1 J0E         1 TEMP              0 ****  ****    0 ROOT
