@<TRIPOS>MOLECULE
J0E
   49    52     1     0     0
SMALL
No Charge or Current Charge


@<TRIPOS>ATOM
      1 N1          -0.3860     0.3790     0.3980 na         1 J0E      -0.017100
      2 N2          -3.8820    -1.1000    -0.0200 n          1 J0E      -0.411800
      3 C3          -1.8240     0.1450     0.6800 c6         1 J0E       0.084300
      4 N4          -0.3890     2.8740     0.1850 nb         1 J0E      -0.230000
      5 C5          -3.5340    -0.6440     2.4100 c6         1 J0E      -0.099400
      6 C6          -4.1000    -1.6270     1.3570 c6         1 J0E       0.097000
      7 C8          -6.3830    -0.9020    -0.4850 c3         1 J0E      -0.152400
      8 C11          1.6830     0.0000     0.0450 cc         1 J0E       0.445500
      9 C12          2.9660    -0.6930    -0.0900 ca         1 J0E      -0.142900
     10 C13          4.0900    -0.2800     0.6560 ca         1 J0E      -0.054000
     11 C14          5.3060    -0.9810     0.5600 ca         1 J0E      -0.181500
     12 C15          5.3990    -2.1140    -0.2630 ca         1 J0E       0.148100
     13 C16          4.2780    -2.5530    -0.9790 ca         1 J0E      -0.181500
     14 C17          3.0610    -1.8540    -0.8850 ca         1 J0E      -0.054000
     15 C18          0.4700     3.8760    -0.1160 ca         1 J0E       0.198900
     16 C            2.2850     2.5060    -0.3830 ca         1 J0E       0.456900
     17 O           -4.6400     0.0010    -1.8830 o          1 J0E      -0.594100
     18 C1           1.4780     1.4270    -0.0340 ca         1 J0E      -0.383900
     19 C10         -2.4410    -0.8650    -0.3220 c6         1 J0E       0.081000
     20 C2           0.1510     1.6400     0.2120 ca         1 J0E       0.164500
     21 C4          -2.0370    -0.3410     2.1400 c6         1 J0E      -0.089400
     22 C7          -4.9140    -0.6150    -0.8610 c          1 J0E       0.603100
     23 C9          -7.4450    -0.4580    -1.5180 c3         1 J0E      -0.077100
     24 N3           0.5390    -0.6550     0.2790 nd         1 J0E      -0.528100
     25 N5           1.7860     3.7490    -0.4170 nb         1 J0E      -0.313000
     26 O1           6.5720    -2.8000    -0.3590 oh         1 J0E      -0.530100
     27 H1          -2.3590     1.0970     0.5570 h1         1 J0E       0.095700
     28 H2          -4.1120     0.2890     2.3880 hc         1 J0E       0.052200
     29 H3          -3.6560    -1.0660     3.4170 hc         1 J0E       0.052200
     30 H4          -5.1600    -1.8150     1.5680 h1         1 J0E       0.053200
     31 H5          -3.5840    -2.5940     1.4500 h1         1 J0E       0.053200
     32 H6          -6.4750    -1.9690    -0.2530 hc         1 J0E       0.054700
     33 H7          -6.5750    -0.4470     0.4940 hc         1 J0E       0.054700
     34 H8           4.0190     0.5810     1.3190 ha         1 J0E       0.125000
     35 H9           6.1650    -0.6430     1.1350 ha         1 J0E       0.123500
     36 H10          4.3470    -3.4390    -1.6050 ha         1 J0E       0.123500
     37 H11          2.1940    -2.2090    -1.4380 ha         1 J0E       0.125000
     38 H12          0.0580     4.8830    -0.1400 h5         1 J0E       0.047100
     39 H13          4.0080     3.1860    -1.2180 hn         1 J0E       0.502000
     40 H14          3.9300     1.4720    -1.0020 hn         1 J0E       0.502000
     41 H15         -1.9040    -1.8230    -0.2580 h1         1 J0E       0.077700
     42 H16         -2.3070    -0.4920    -1.3470 h1         1 J0E       0.077700
     43 H17         -1.4420    -1.2460     2.3230 hc         1 J0E       0.060200
     44 H18         -1.6750     0.4200     2.8460 hc         1 J0E       0.060200
     45 H19         -7.3990     0.6250    -1.6830 hc         1 J0E       0.042367
     46 H20         -7.2870    -0.9630    -2.4790 hc         1 J0E       0.042367
     47 H21         -8.4520    -0.7070    -1.1620 hc         1 J0E       0.042367
     48 H22          7.2380    -2.3570     0.2090 ho         1 J0E       0.466000
     49 N            3.5770     2.3910    -0.7540 nv         1 J0E      -1.067900
@<TRIPOS>BOND
     1     1     3 1   
     2     1    20 1   
     3     1    24 1   
     4     2     6 1   
     5     2    19 1   
     6     2    22 1   
     7     3    19 1   
     8     3    21 1   
     9     3    27 1   
    10     4    15 ar  
    11     4    20 ar  
    12     5     6 1   
    13     5    21 1   
    14     5    28 1   
    15     5    29 1   
    16     6    30 1   
    17     6    31 1   
    18     7    22 1   
    19     7    23 1   
    20     7    32 1   
    21     7    33 1   
    22     8     9 1   
    23     8    18 1   
    24     8    24 2   
    25     9    10 ar  
    26     9    14 ar  
    27    10    11 ar  
    28    10    34 1   
    29    11    12 ar  
    30    11    35 1   
    31    12    13 ar  
    32    12    26 1   
    33    13    14 ar  
    34    13    36 1   
    35    14    37 1   
    36    15    25 ar  
    37    15    38 1   
    38    16    18 ar  
    39    16    25 ar  
    40    16    49 1   
    41    17    22 2   
    42    18    20 ar  
    43    19    41 1   
    44    19    42 1   
    45    21    43 1   
    46    21    44 1   
    47    23    45 1   
    48    23    46 1   
    49    23    47 1   
    50    26    48 1   
    51    39    49 1   
    52    40    49 1   
@<TRIPOS>SUBSTRUCTURE
     1 J0E         1 TEMP              0 ****  ****    0 ROOT
