@<TRIPOS>MOLECULE
J0F
   26    27     1     0     0
SMALL
abcg2


@<TRIPOS>ATOM
      1 C1          34.4360    37.7360    61.4110 cc         1 J0F      -0.013300
      2 C2          34.3730    37.2960    62.7040 cd         1 J0F      -0.083500
      3 C4          33.1520    35.9030    61.4070 ca         1 J0F       0.138500
      4 C5          33.5630    36.1270    62.7340 ca         1 J0F      -0.185800
      5 C6          33.0990    35.2000    63.6560 ca         1 J0F       0.172900
      6 N3          33.6830    36.8800    60.6370 na         1 J0F      -0.318400
      7 C8          32.0060    34.0790    61.9780 ca         1 J0F       0.155300
      8 C10         31.1430    32.9140    61.6090 c3         1 J0F      -0.132400
      9 C11         35.1060    38.9180    60.8120 c3         1 J0F      -0.031200
     10 C12         34.1480    40.0940    60.5900 c3         1 J0F      -0.074400
     11 C13         34.8520    41.2780    59.9440 c3         1 J0F      -0.091100
     12 N7          32.3320    34.1930    63.2750 nb         1 J0F      -0.205000
     13 N9          32.3850    34.9010    61.0110 nb         1 J0F      -0.195000
     14 BR1         35.1840    38.0820    64.1850 br         1 J0F      -0.041700
     15 H1          33.3480    35.2680    64.7100 h4         1 J0F       0.033100
     16 H2          33.5670    36.9620    59.6370 hn         1 J0F       0.365000
     17 H3          30.9130    32.9170    60.5460 hc         1 J0F       0.058700
     18 H4          31.6420    31.9750    61.8540 hc         1 J0F       0.058700
     19 H5          30.2080    32.9340    62.1700 hc         1 J0F       0.058700
     20 H6          35.5560    38.6300    59.8570 hc         1 J0F       0.063700
     21 H7          35.9270    39.2340    61.4580 hc         1 J0F       0.063700
     22 H8          33.7190    40.3910    61.5490 hc         1 J0F       0.047200
     23 H9          33.3130    39.7710    59.9630 hc         1 J0F       0.047200
     24 H10         34.1620    42.1080    59.7880 hc         1 J0F       0.036367
     25 H11         35.6700    41.6400    60.5680 hc         1 J0F       0.036367
     26 H12         35.2710    41.0060    58.9740 hc         1 J0F       0.036367
@<TRIPOS>BOND
     1     1     2 2   
     2     1     6 1   
     3     1     9 1   
     4     2     4 1   
     5     2    14 1   
     6     3     4 ar  
     7     3     6 1   
     8     3    13 ar  
     9     4     5 ar  
    10     5    12 ar  
    11     5    15 1   
    12     6    16 1   
    13     7     8 1   
    14     7    12 ar  
    15     7    13 ar  
    16     8    17 1   
    17     8    18 1   
    18     8    19 1   
    19     9    10 1   
    20     9    20 1   
    21     9    21 1   
    22    10    11 1   
    23    10    22 1   
    24    10    23 1   
    25    11    24 1   
    26    11    25 1   
    27    11    26 1   
@<TRIPOS>SUBSTRUCTURE
     1 J0F         1 TEMP              0 ****  ****    0 ROOT
