@<TRIPOS>MOLECULE
J0F
   26    27     1     0     0
SMALL
No Charge or Current Charge


@<TRIPOS>ATOM
      1 C1          34.3980    37.7400    61.2820 cc         1 J0F      -0.013300
      2 C2          34.2270    37.3210    62.5930 cd         1 J0F      -0.083500
      3 C4          33.1300    35.8130    61.3040 ca         1 J0F       0.138500
      4 C5          33.4360    36.1180    62.6050 ca         1 J0F      -0.185800
      5 C6          32.9840    35.3030    63.6510 ca         1 J0F       0.172900
      6 N3          33.7070    36.7870    60.5070 na         1 J0F      -0.318400
      7 C8          31.9790    33.9780    62.0490 ca         1 J0F       0.155300
      8 C10         31.1520    32.7470    61.7240 c3         1 J0F      -0.132400
      9 C11         35.1330    38.9310    60.7280 c3         1 J0F      -0.031200
     10 C12         34.2310    40.1770    60.6030 c3         1 J0F      -0.074400
     11 C13         34.9710    41.4080    60.0450 c3         1 J0F      -0.091100
     12 N7          32.2410    34.2100    63.3620 nb         1 J0F      -0.205000
     13 N9          32.3930    34.7300    60.9970 nb         1 J0F      -0.195000
     14 Br1         34.9230    38.2190    64.1010 br         1 J0F      -0.041700
     15 H1          33.2060    35.5090    64.6960 h4         1 J0F       0.033100
     16 H2          33.6360    36.8050    59.4960 hn         1 J0F       0.365000
     17 H3          30.5440    32.8980    60.8240 hc         1 J0F       0.058700
     18 H4          31.7990    31.8790    61.5500 hc         1 J0F       0.058700
     19 H5          30.4680    32.4950    62.5440 hc         1 J0F       0.058700
     20 H6          35.5450    38.6830    59.7420 hc         1 J0F       0.063700
     21 H7          35.9920    39.1670    61.3690 hc         1 J0F       0.063700
     22 H8          33.8190    40.4240    61.5900 hc         1 J0F       0.047200
     23 H9          33.3800    39.9430    59.9520 hc         1 J0F       0.047200
     24 H10         34.2890    42.2640    59.9760 hc         1 J0F       0.036367
     25 H11         35.8070    41.6870    60.6970 hc         1 J0F       0.036367
     26 H12         35.3660    41.2020    59.0420 hc         1 J0F       0.036367
@<TRIPOS>BOND
     1     1     2 2   
     2     1     6 1   
     3     1     9 1   
     4     2     4 1   
     5     2    14 1   
     6     3     4 ar  
     7     3     6 1   
     8     3    13 ar  
     9     4     5 ar  
    10     5    12 ar  
    11     5    15 1   
    12     6    16 1   
    13     7     8 1   
    14     7    12 ar  
    15     7    13 ar  
    16     8    17 1   
    17     8    18 1   
    18     8    19 1   
    19     9    10 1   
    20     9    20 1   
    21     9    21 1   
    22    10    11 1   
    23    10    22 1   
    24    10    23 1   
    25    11    24 1   
    26    11    25 1   
    27    11    26 1   
@<TRIPOS>SUBSTRUCTURE
     1 J0F         1 TEMP              0 ****  ****    0 ROOT
