@<TRIPOS>MOLECULE
J0G
   55    57     1     0     0
SMALL
No Charge or Current Charge


@<TRIPOS>ATOM
      1 N1          -1.6820     0.4530     0.9510 ns         1 J0G      -0.492900
      2 N3           6.7860    -3.4340    -0.4350 nb         1 J0G      -0.662000
      3 C4           1.9790     1.0410     0.2950 ca         1 J0G       0.389000
      4 C5           0.7500     0.3990     0.5820 ca         1 J0G      -0.240600
      5 C6           0.7420    -1.0170     0.6580 ca         1 J0G      -0.040000
      6 C7          -0.5280     1.1880     0.8050 c          1 J0G       0.629700
      7 C8          -3.0110     1.0110     1.2000 c3         1 J0G       0.157000
      8 C10         -4.9340     0.3370    -0.3250 ca         1 J0G      -0.130000
      9 C13         -5.2230    -2.1310     0.9790 ca         1 J0G      -0.073000
     10 C15         -7.7620    -1.0390    -2.3290 c3         1 J0G       0.148900
     11 C17          4.3990    -1.9200    -0.0360 cp         1 J0G       0.000000
     12 C20          6.8220    -2.2060     0.1290 ca         1 J0G       0.331900
     13 C21          5.6720    -1.4280     0.3430 ca         1 J0G      -0.152500
     14 C22          2.5980     4.7230    -0.6580 c3         1 J0G       0.136800
     15 C1           1.9160    -1.7570     0.4550 ca         1 J0G      -0.170000
     16 O1          -0.5640     2.4120     0.8610 o          1 J0G      -0.644100
     17 C2           3.1460    -1.1260     0.1740 cp         1 J0G       0.026000
     18 C3           3.1480     0.2850     0.1020 ca         1 J0G      -0.199000
     19 N4           3.4070     5.5390    -1.6030 n8         1 J0G      -1.000200
     20 C9          -4.0860     0.0200     0.7550 ca         1 J0G      -0.061300
     21 C11         -5.9230    -0.5640    -0.7520 ca         1 J0G       0.142100
     22 C12         -6.0680    -1.8050    -0.0950 ca         1 J0G      -0.194000
     23 C14         -4.2370    -1.2240     1.4010 ca         1 J0G      -0.147000
     24 C16          2.8990     3.1970    -0.7350 c3         1 J0G       0.216800
     25 C18          4.3810    -3.2070    -0.6240 ca         1 J0G      -0.152500
     26 C19          5.5790    -3.9190    -0.8040 ca         1 J0G       0.331900
     27 C23         -3.1740     1.4250     2.6780 c3         1 J0G      -0.107100
     28 H1          -1.6010    -0.5500     0.8660 hn         1 J0G       0.317500
     29 H2          -0.1650    -1.5710     0.8850 ha         1 J0G       0.113000
     30 H3          -3.1120     1.9200     0.5910 h1         1 J0G       0.084700
     31 H4          -4.8300     1.2890    -0.8390 ha         1 J0G       0.131000
     32 H5          -5.3320    -3.0880     1.4850 ha         1 J0G       0.112000
     33 H6          -8.2710    -0.5490    -3.1690 h1         1 J0G       0.041033
     34 H7          -7.3480    -1.9890    -2.6900 h1         1 J0G       0.041033
     35 H8          -8.5110    -1.2510    -1.5560 h1         1 J0G       0.041033
     36 H9           7.8030    -1.8350     0.4230 h4         1 J0G       0.018600
     37 H10          5.7760    -0.4560     0.8140 ha         1 J0G       0.126500
     38 H11          2.7980     5.0770     0.3630 h1         1 J0G       0.038200
     39 H12          1.5340     4.8940    -0.8750 h1         1 J0G       0.038200
     40 H13          1.8700    -2.8400     0.5370 ha         1 J0G       0.119000
     41 H14          1.1520     2.8580     0.4400 hn         1 J0G       0.517000
     42 H15          4.0780     0.7970    -0.1180 ha         1 J0G       0.121000
     43 H16          3.1460     5.2970    -2.5670 hn         1 J0G       0.398000
     44 H17          3.1240     6.5250    -1.5210 hn         1 J0G       0.398000
     45 H19         -6.8220    -2.5230    -0.4010 ha         1 J0G       0.118000
     46 H20         -3.5880    -1.4940     2.2320 ha         1 J0G       0.112000
     47 H21          2.7160     2.8500    -1.7620 h1         1 J0G       0.046200
     48 H22          3.9620     3.0350    -0.5100 h1         1 J0G       0.046200
     49 H23          3.4490    -3.6550    -0.9560 ha         1 J0G       0.126500
     50 H24          5.5720    -4.9080    -1.2600 h4         1 J0G       0.018600
     51 H25         -3.0210     0.5720     3.3490 hc         1 J0G       0.045033
     52 H26         -2.4500     2.2030     2.9450 hc         1 J0G       0.045033
     53 H27         -4.1800     1.8250     2.8520 hc         1 J0G       0.045033
     54 O2          -6.7210    -0.1890    -1.8140 os         1 J0G      -0.340100
     55 N2           2.0570     2.4280     0.2030 nu         1 J0G      -0.962200
@<TRIPOS>BOND
     1     1     6 1   
     2     1     7 1   
     3     1    28 1   
     4     2    12 ar  
     5     2    26 ar  
     6     3     4 ar  
     7     3    18 ar  
     8     3    55 1   
     9     4     5 ar  
    10     4     6 1   
    11     5    15 ar  
    12     5    29 1   
    13     6    16 2   
    14     7    20 1   
    15     7    27 1   
    16     7    30 1   
    17     8    20 ar  
    18     8    21 ar  
    19     8    31 1   
    20     9    22 ar  
    21     9    23 ar  
    22     9    32 1   
    23    10    33 1   
    24    10    34 1   
    25    10    35 1   
    26    10    54 1   
    27    11    13 ar  
    28    11    17 1   
    29    11    25 ar  
    30    12    13 ar  
    31    12    36 1   
    32    13    37 1   
    33    14    19 1   
    34    14    24 1   
    35    14    38 1   
    36    14    39 1   
    37    15    17 ar  
    38    15    40 1   
    39    17    18 ar  
    40    18    42 1   
    41    19    43 1   
    42    19    44 1   
    43    20    23 ar  
    44    21    22 ar  
    45    21    54 1   
    46    22    45 1   
    47    23    46 1   
    48    24    47 1   
    49    24    48 1   
    50    24    55 1   
    51    25    26 ar  
    52    25    49 1   
    53    26    50 1   
    54    27    51 1   
    55    27    52 1   
    56    27    53 1   
    57    41    55 1   
@<TRIPOS>SUBSTRUCTURE
     1 J0G         1 TEMP              0 ****  ****    0 ROOT
