@<TRIPOS>MOLECULE
J0G
   55    57     1     0     0
SMALL
abcg2


@<TRIPOS>ATOM
      1 N1          -1.7240     0.5460     0.5330 ns         1 J0G      -0.492900
      2 N3           6.6180    -3.3110    -0.3490 nb         1 J0G      -0.662000
      3 C4           1.8370     1.0890    -0.1150 ca         1 J0G       0.389000
      4 C5           0.5910     0.4070    -0.1030 ca         1 J0G      -0.240600
      5 C6           0.5800    -0.9840    -0.1710 ca         1 J0G      -0.040000
      6 C7          -0.6900     1.1650    -0.0610 c          1 J0G       0.629700
      7 C8          -3.0460     1.1440     0.6450 c3         1 J0G       0.157000
      8 C10         -5.0300     0.0410    -0.4190 ca         1 J0G      -0.130000
      9 C13         -5.1150    -1.9130     1.5270 ca         1 J0G      -0.073000
     10 C15         -7.9150    -1.8180    -1.6020 c3         1 J0G       0.148900
     11 C17          4.2290    -1.8430    -0.2570 cp         1 J0G       0.000000
     12 C20          6.5180    -2.1950     0.3640 ca         1 J0G       0.331900
     13 C21          5.3630    -1.4330     0.4410 ca         1 J0G      -0.152500
     14 C22          2.8900     4.6660    -0.0800 c3         1 J0G       0.136800
     15 C1           1.7410    -1.7300    -0.2260 ca         1 J0G      -0.170000
     16 O1          -0.7990     2.2890    -0.5510 o          1 J0G      -0.644100
     17 C2           2.9710    -1.0730    -0.2070 cp         1 J0G       0.026000
     18 C3           3.0080     0.3120    -0.1540 ca         1 J0G      -0.199000
     19 N4           4.1330     5.3940    -0.2620 n8         1 J0G      -1.000200
     20 C9          -4.0960     0.0560     0.6030 ca         1 J0G      -0.061300
     21 C11         -6.0190    -0.9450    -0.4740 ca         1 J0G       0.142100
     22 C12         -6.0590    -1.9330     0.5060 ca         1 J0G      -0.194000
     23 C14         -4.1430    -0.9310     1.5890 ca         1 J0G      -0.147000
     24 C16          3.1460     3.1720    -0.2030 c3         1 J0G       0.216800
     25 C18          4.3350    -3.0150    -1.0030 ca         1 J0G      -0.152500
     26 C19          5.5380    -3.7020    -1.0160 ca         1 J0G       0.331900
     27 C23         -3.1680     2.0100     1.8960 c3         1 J0G      -0.107100
     28 H1          -1.5450    -0.2840     1.0750 hn         1 J0G       0.317500
     29 H2          -0.3660    -1.5110    -0.2040 ha         1 J0G       0.113000
     30 H3          -3.1800     1.7820    -0.2290 h1         1 J0G       0.084700
     31 H4          -5.0030     0.8020    -1.1910 ha         1 J0G       0.131000
     32 H5          -5.1520    -2.6820     2.2880 ha         1 J0G       0.112000
     33 H6          -8.5010    -1.5530    -2.4790 h1         1 J0G       0.041033
     34 H7          -7.5250    -2.8300    -1.7340 h1         1 J0G       0.041033
     35 H8          -8.5690    -1.8040    -0.7260 h1         1 J0G       0.041033
     36 H9           7.4020    -1.8880     0.9120 h4         1 J0G       0.018600
     37 H10          5.3500    -0.5440     1.0580 ha         1 J0G       0.126500
     38 H11          2.5070     4.8760     0.9210 h1         1 J0G       0.038200
     39 H12          2.0980     4.9570    -0.7860 h1         1 J0G       0.038200
     40 H13          1.6850    -2.8100    -0.2660 ha         1 J0G       0.119000
     41 H14          1.0620     2.9280    -0.3110 hn         1 J0G       0.517000
     42 H15          3.9680     0.8100    -0.1810 ha         1 J0G       0.121000
     43 H16          4.3970     5.3790    -1.2400 hn         1 J0G       0.398000
     44 H17          3.9920     6.3680    -0.0300 hn         1 J0G       0.398000
     45 H19         -6.8060    -2.7150     0.4950 ha         1 J0G       0.118000
     46 H20         -3.4320    -0.9400     2.4060 ha         1 J0G       0.112000
     47 H21          3.6260     2.9560    -1.1680 h1         1 J0G       0.046200
     48 H22          3.8560     2.8790     0.5750 h1         1 J0G       0.046200
     49 H23          3.5040    -3.3860    -1.5870 ha         1 J0G       0.126500
     50 H24          5.6310    -4.6110    -1.6000 h4         1 J0G       0.018600
     51 H25         -3.0290     1.4210     2.8040 hc         1 J0G       0.045033
     52 H26         -2.4210     2.8030     1.8860 hc         1 J0G       0.045033
     53 H27         -4.1540     2.4730     1.9430 hc         1 J0G       0.045033
     54 O2          -6.8810    -0.8590    -1.5050 os         1 J0G      -0.340100
     55 N2           1.9100     2.4440    -0.0570 nu         1 J0G      -0.962200
@<TRIPOS>BOND
     1     1     6 1   
     2     1     7 1   
     3     1    28 1   
     4     2    12 ar  
     5     2    26 ar  
     6     3     4 ar  
     7     3    18 ar  
     8     3    55 1   
     9     4     5 ar  
    10     4     6 1   
    11     5    15 ar  
    12     5    29 1   
    13     6    16 2   
    14     7    20 1   
    15     7    27 1   
    16     7    30 1   
    17     8    20 ar  
    18     8    21 ar  
    19     8    31 1   
    20     9    22 ar  
    21     9    23 ar  
    22     9    32 1   
    23    10    33 1   
    24    10    34 1   
    25    10    35 1   
    26    10    54 1   
    27    11    13 ar  
    28    11    17 1   
    29    11    25 ar  
    30    12    13 ar  
    31    12    36 1   
    32    13    37 1   
    33    14    19 1   
    34    14    24 1   
    35    14    38 1   
    36    14    39 1   
    37    15    17 ar  
    38    15    40 1   
    39    17    18 ar  
    40    18    42 1   
    41    19    43 1   
    42    19    44 1   
    43    20    23 ar  
    44    21    22 ar  
    45    21    54 1   
    46    22    45 1   
    47    23    46 1   
    48    24    47 1   
    49    24    48 1   
    50    24    55 1   
    51    25    26 ar  
    52    25    49 1   
    53    26    50 1   
    54    27    51 1   
    55    27    52 1   
    56    27    53 1   
    57    41    55 1   
@<TRIPOS>SUBSTRUCTURE
     1 J0G         1 TEMP              0 ****  ****    0 ROOT
