@<TRIPOS>MOLECULE
J0J
   60    59     1     0     0
SMALL
abcg2


@<TRIPOS>ATOM
      1 N03         -6.4300     2.6750     1.0600 n8         1 J0J      -1.002200
      2 C02         -6.0160     1.7340     0.0390 c3         1 J0J       0.075500
      3 C01         -7.1760     1.4540    -0.9140 c3         1 J0J      -0.080100
      4 C04         -5.5270     0.3970     0.5960 c          1 J0J       0.565100
      5 O05         -6.0480    -0.1090     1.5830 o          1 J0J      -0.646100
      6 N06         -4.5100    -0.1660    -0.0740 ns         1 J0J      -0.440900
      7 C07         -4.1520    -1.5570     0.0770 c3         1 J0J      -0.053300
      8 C30         -5.1480    -2.5060    -0.6470 c          1 J0J       0.716000
      9 O31         -6.0610    -1.9880    -1.3110 o          1 J0J      -0.731000
     10 C08         -2.7230    -1.7870    -0.4060 c3         1 J0J      -0.059400
     11 C09         -1.6990    -1.0040     0.4010 c3         1 J0J      -0.157400
     12 C10         -0.2780    -1.1970    -0.0820 c          1 J0J       0.594100
     13 O11          0.0740    -2.1370    -0.7800 o          1 J0J      -0.600100
     14 O32         -4.9260    -3.7220    -0.4840 o          1 J0J      -0.731000
     15 C22          2.6070    -1.5610     0.7250 c          1 J0J       0.586100
     16 C13          1.9980    -0.3360     0.0380 c3         1 J0J       0.032700
     17 C14          2.7120     0.9250     0.5280 c3         1 J0J      -0.087400
     18 C15          2.2420     2.2020    -0.1610 c3         1 J0J      -0.079400
     19 C16          3.0230     3.4250     0.3050 c3         1 J0J      -0.101400
     20 C17          2.5640     4.7430    -0.3420 c3         1 J0J       0.023500
     21 C19          3.5430     5.8580     0.0870 c          1 J0J       0.724000
     22 O23          2.2300    -1.9200     1.8330 o          1 J0J      -0.660100
     23 O20          3.1530     6.6600     0.9590 o          1 J0J      -0.743500
     24 O21          4.6690     5.8360    -0.4500 o          1 J0J      -0.743500
     25 N12          0.5880    -0.2470     0.3160 ns         1 J0J      -0.494900
     26 N18          1.1930     5.1250    -0.0490 n8         1 J0J      -0.996200
     27 N24          3.5970    -2.1400     0.0450 ns         1 J0J      -0.462900
     28 C25          4.3610    -3.2760     0.5100 c3         1 J0J      -0.037300
     29 C26          5.3810    -2.8790     1.5750 c3         1 J0J      -0.078100
     30 C27          5.0660    -3.9460    -0.6940 c          1 J0J       0.718000
     31 O28          4.9790    -3.3720    -1.7980 o          1 J0J      -0.736500
     32 O29          5.6740    -5.0000    -0.4400 o          1 J0J      -0.736500
     33 HN03        -7.1200     2.2350     1.6590 hn         1 J0J       0.394500
     34 HN0A        -5.6470     2.8960     1.6630 hn         1 J0J       0.394500
     35 H02         -5.2070     2.1990    -0.5310 h1         1 J0J       0.055700
     36 H01         -8.0210     1.0230    -0.3750 hc         1 J0J       0.042033
     37 H01A        -7.5070     2.3810    -1.3830 hc         1 J0J       0.042033
     38 H01B        -6.8870     0.7500    -1.6930 hc         1 J0J       0.042033
     39 HN06        -4.2490     0.2690    -0.9470 hn         1 J0J       0.292500
     40 H07         -4.1920    -1.7950     1.1440 h1         1 J0J       0.063700
     41 H08         -2.5120    -2.8530    -0.3390 hc         1 J0J       0.063200
     42 H08A        -2.6460    -1.5230    -1.4670 hc         1 J0J       0.063200
     43 H09         -1.9380     0.0620     0.4020 hc         1 J0J       0.048200
     44 H09A        -1.7400    -1.3180     1.4500 hc         1 J0J       0.048200
     45 H13          2.1440    -0.4170    -1.0440 h1         1 J0J       0.070700
     46 H14          2.5800     1.0150     1.6120 hc         1 J0J       0.050200
     47 H14A         3.7830     0.7970     0.3560 hc         1 J0J       0.050200
     48 H15          2.3500     2.0910    -1.2450 hc         1 J0J       0.029700
     49 H15A         1.1740     2.3480     0.0270 hc         1 J0J       0.029700
     50 H16          2.9430     3.5160     1.3950 hc         1 J0J       0.041700
     51 H16A         4.0830     3.2740     0.0820 hc         1 J0J       0.041700
     52 H17          2.6560     4.6210    -1.4280 h1         1 J0J       0.042700
     53 HN12         0.2700     0.4540     0.9670 hn         1 J0J       0.308500
     54 HN18         0.5690     4.3360    -0.1600 hn         1 J0J       0.376500
     55 HN1A         1.1370     5.4100     0.9210 hn         1 J0J       0.376500
     56 HN24         3.7910    -1.8660    -0.9080 hn         1 J0J       0.341500
     57 H25          3.6730    -4.0070     0.9480 h1         1 J0J       0.052700
     58 H26          5.9050    -3.7590     1.9450 hc         1 J0J       0.019700
     59 H26A         6.1210    -2.1880     1.1670 hc         1 J0J       0.019700
     60 H26B         4.8930    -2.3960     2.4210 hc         1 J0J       0.019700
@<TRIPOS>BOND
     1     1     2 1   
     2     1    33 1   
     3     1    34 1   
     4     2     3 1   
     5     2     4 1   
     6     2    35 1   
     7     3    36 1   
     8     3    37 1   
     9     3    38 1   
    10     4     5 2   
    11     4     6 1   
    12     6     7 1   
    13     6    39 1   
    14     7     8 1   
    15     7    10 1   
    16     7    40 1   
    17     8     9 1   
    18     8    14 1   
    19    10    11 1   
    20    10    41 1   
    21    10    42 1   
    22    11    12 1   
    23    11    43 1   
    24    11    44 1   
    25    12    13 2   
    26    12    25 1   
    27    15    16 1   
    28    15    22 2   
    29    15    27 1   
    30    16    17 1   
    31    16    25 1   
    32    16    45 1   
    33    17    18 1   
    34    17    46 1   
    35    17    47 1   
    36    18    19 1   
    37    18    48 1   
    38    18    49 1   
    39    19    20 1   
    40    19    50 1   
    41    19    51 1   
    42    20    21 1   
    43    20    26 1   
    44    20    52 1   
    45    21    23 1   
    46    21    24 1   
    47    25    53 1   
    48    26    54 1   
    49    26    55 1   
    50    27    28 1   
    51    27    56 1   
    52    28    29 1   
    53    28    30 1   
    54    28    57 1   
    55    29    58 1   
    56    29    59 1   
    57    29    60 1   
    58    30    31 1   
    59    30    32 1   
@<TRIPOS>SUBSTRUCTURE
     1 J0J         1 TEMP              0 ****  ****    0 ROOT
