@<TRIPOS>MOLECULE
J0J
   60    59     1     0     0
SMALL
No Charge or Current Charge


@<TRIPOS>ATOM
      1 N03         -4.9100    -0.8240     3.4860 n8         1 J0J      -1.002200
      2 C02         -5.5210     0.0180     2.4030 c3         1 J0J       0.075500
      3 C01         -7.0570     0.0250     2.5600 c3         1 J0J      -0.080100
      4 C04         -5.1150    -0.3710     0.9330 c          1 J0J       0.565100
      5 O05         -5.1830    -1.5210     0.5100 o          1 J0J      -0.646100
      6 N06         -4.6410     0.6740     0.1630 ns         1 J0J      -0.440900
      7 C07         -4.1820     0.5720    -1.2450 c3         1 J0J      -0.053300
      8 C30         -4.7100     1.7840    -2.0730 c          1 J0J       0.716000
      9 O31         -4.5430     2.9120    -1.6280 o          1 J0J      -0.731000
     10 C08         -2.6390     0.4480    -1.3540 c3         1 J0J      -0.059400
     11 C09         -2.0510    -0.8210    -0.6870 c3         1 J0J      -0.157400
     12 C10         -0.5450    -0.9420    -0.9430 c          1 J0J       0.594100
     13 O11         -0.0880    -1.2870    -2.0230 o          1 J0J      -0.600100
     14 O32         -5.3520     1.5530    -3.0880 o          1 J0J      -0.731000
     15 C22          2.2290    -1.3480     1.5100 c          1 J0J       0.586100
     16 C13          1.7320    -0.7310     0.1660 c3         1 J0J       0.032700
     17 C14          2.3580     0.6720    -0.0700 c3         1 J0J      -0.087400
     18 C15          2.0400     1.3010    -1.4490 c3         1 J0J      -0.079400
     19 C16          2.7660     2.6520    -1.6730 c3         1 J0J      -0.101400
     20 C17          2.5490     3.2800    -3.0760 c3         1 J0J       0.023500
     21 C19          3.5940     4.4490    -3.3400 c          1 J0J       0.724000
     22 O23          1.5080    -1.4870     2.4930 o          1 J0J      -0.660100
     23 O20          3.4960     5.4830    -2.6890 o          1 J0J      -0.743500
     24 O21          4.4180     4.3020    -4.2340 o          1 J0J      -0.743500
     25 N12          0.2520    -0.6730     0.1480 ns         1 J0J      -0.494900
     26 N18          1.0940     3.6230    -3.2710 n8         1 J0J      -0.996200
     27 N24          3.5510    -1.7460     1.5130 ns         1 J0J      -0.462900
     28 C25          4.2750    -2.3230     2.6710 c3         1 J0J      -0.037300
     29 C26          4.6650    -1.2300     3.6920 c3         1 J0J      -0.078100
     30 C27          5.5230    -3.1330     2.1970 c          1 J0J       0.718000
     31 O28          6.1740    -2.7030     1.2530 o          1 J0J      -0.736500
     32 O29          5.7330    -4.2230     2.7100 o          1 J0J      -0.736500
     33 HN03        -5.1210    -1.8110     3.2880 hn         1 J0J       0.394500
     34 HN0A        -3.8860    -0.7860     3.4090 hn         1 J0J       0.394500
     35 H02         -5.1730     1.0480     2.5660 h1         1 J0J       0.055700
     36 H01         -7.4730    -0.9770     2.3990 hc         1 J0J       0.042033
     37 H01A        -7.3460     0.3640     3.5620 hc         1 J0J       0.042033
     38 H01B        -7.5120     0.7050     1.8300 hc         1 J0J       0.042033
     39 HN06        -4.6310     1.5910     0.5950 hn         1 J0J       0.292500
     40 H07         -4.6280    -0.3260    -1.6910 h1         1 J0J       0.063700
     41 H08         -2.3680     0.4440    -2.4180 hc         1 J0J       0.063200
     42 H08A        -2.1690     1.3380    -0.9170 hc         1 J0J       0.063200
     43 H09         -2.2410    -0.7700     0.3910 hc         1 J0J       0.048200
     44 H09A        -2.5500    -1.6990    -1.1130 hc         1 J0J       0.048200
     45 H13          2.0710    -1.4060    -0.6310 h1         1 J0J       0.070700
     46 H14          2.0210     1.3520     0.7220 hc         1 J0J       0.050200
     47 H14A         3.4470     0.5940     0.0290 hc         1 J0J       0.050200
     48 H15          2.3350     0.5990    -2.2390 hc         1 J0J       0.029700
     49 H15A         0.9580     1.4510    -1.5360 hc         1 J0J       0.029700
     50 H16          2.4590     3.3660    -0.8980 hc         1 J0J       0.041700
     51 H16A         3.8430     2.4900    -1.5350 hc         1 J0J       0.041700
     52 H17          2.7850     2.4980    -3.8110 h1         1 J0J       0.042700
     53 HN12        -0.2230    -0.4450     1.0130 hn         1 J0J       0.308500
     54 HN18         0.5230     2.8470    -2.9190 hn         1 J0J       0.376500
     55 HN1A         0.8580     4.4060    -2.6500 hn         1 J0J       0.376500
     56 HN24         4.0730    -1.6110     0.6530 hn         1 J0J       0.341500
     57 H25          3.6030    -3.0340     3.1690 h1         1 J0J       0.052700
     58 H26          5.1820    -1.6750     4.5500 hc         1 J0J       0.019700
     59 H26A         5.3340    -0.4910     3.2340 hc         1 J0J       0.019700
     60 H26B         3.7760    -0.7070     4.0640 hc         1 J0J       0.019700
@<TRIPOS>BOND
     1     1     2 1   
     2     1    33 1   
     3     1    34 1   
     4     2     3 1   
     5     2     4 1   
     6     2    35 1   
     7     3    36 1   
     8     3    37 1   
     9     3    38 1   
    10     4     5 2   
    11     4     6 1   
    12     6     7 1   
    13     6    39 1   
    14     7     8 1   
    15     7    10 1   
    16     7    40 1   
    17     8     9 1   
    18     8    14 1   
    19    10    11 1   
    20    10    41 1   
    21    10    42 1   
    22    11    12 1   
    23    11    43 1   
    24    11    44 1   
    25    12    13 2   
    26    12    25 1   
    27    15    16 1   
    28    15    22 2   
    29    15    27 1   
    30    16    17 1   
    31    16    25 1   
    32    16    45 1   
    33    17    18 1   
    34    17    46 1   
    35    17    47 1   
    36    18    19 1   
    37    18    48 1   
    38    18    49 1   
    39    19    20 1   
    40    19    50 1   
    41    19    51 1   
    42    20    21 1   
    43    20    26 1   
    44    20    52 1   
    45    21    23 1   
    46    21    24 1   
    47    25    53 1   
    48    26    54 1   
    49    26    55 1   
    50    27    28 1   
    51    27    56 1   
    52    28    29 1   
    53    28    30 1   
    54    28    57 1   
    55    29    58 1   
    56    29    59 1   
    57    29    60 1   
    58    30    31 1   
    59    30    32 1   
@<TRIPOS>SUBSTRUCTURE
     1 J0J         1 TEMP              0 ****  ****    0 ROOT
