@<TRIPOS>MOLECULE
J0L
   28    29     1     0     0
SMALL
No Charge or Current Charge


@<TRIPOS>ATOM
      1 C1         -14.7840     9.9520    21.6940 ca         1 J0L      -0.147000
      2 C2         -15.1490     8.6540    22.1250 ca         1 J0L      -0.103000
      3 C3         -15.1960     8.3410    23.4990 ca         1 J0L      -0.098000
      4 C4         -14.4600    10.9580    22.6310 ca         1 J0L       0.270000
      5 C5         -14.5190    10.6070    23.9910 ca         1 J0L      -0.085000
      6 C6         -14.8730     9.3440    24.4250 ca         1 J0L      -0.101300
      7 C7         -14.8440     9.2730    25.9530 c5         1 J0L      -0.084700
      8 C8         -14.4040    10.7380    26.3460 c          1 J0L       0.565000
      9 C11        -16.2410     8.9490    26.5410 c3         1 J0L      -0.069100
     10 C12        -13.8080     8.2400    26.4620 c3         1 J0L      -0.069100
     11 C14        -13.9890    12.7670    20.8600 c3         1 J0L       0.185100
     12 N13        -14.0950    12.2520    22.2370 nu         1 J0L      -0.932200
     13 N9         -14.2600    11.3680    25.1280 ns         1 J0L      -0.148000
     14 O10        -14.2220    11.2410    27.4480 o          1 J0L      -0.533000
     15 H1         -14.7560    10.1660    20.6300 ha         1 J0L       0.115000
     16 H2         -15.3950     7.8910    21.3900 ha         1 J0L       0.114000
     17 H3         -15.4760     7.3440    23.8330 ha         1 J0L       0.119000
     18 H4         -16.2290     8.9770    27.6380 hc         1 J0L       0.045033
     19 H5         -16.9900     9.6740    26.1990 hc         1 J0L       0.045033
     20 H6         -16.5810     7.9520    26.2360 hc         1 J0L       0.045033
     21 H7         -13.7370     8.2500    27.5570 hc         1 J0L       0.045033
     22 H8         -14.0760     7.2220    26.1550 hc         1 J0L       0.045033
     23 H9         -12.8090     8.4540    26.0630 hc         1 J0L       0.045033
     24 H10        -13.6810    13.8220    20.8680 h1         1 J0L       0.036367
     25 H11        -13.2450    12.1940    20.2910 h1         1 J0L       0.036367
     26 H12        -14.9570    12.6930    20.3450 h1         1 J0L       0.036367
     27 H13        -13.8800    12.9070    22.9900 hn         1 J0L       0.454000
     28 H14        -13.9790    12.3370    25.0680 hn         1 J0L       0.169000
@<TRIPOS>BOND
     1     1     2 ar  
     2     1     4 ar  
     3     1    15 1   
     4     2     3 ar  
     5     2    16 1   
     6     3     6 ar  
     7     3    17 1   
     8     4     5 ar  
     9     4    12 1   
    10     5     6 ar  
    11     5    13 1   
    12     6     7 1   
    13     7     8 1   
    14     7     9 1   
    15     7    10 1   
    16     8    13 1   
    17     8    14 2   
    18     9    18 1   
    19     9    19 1   
    20     9    20 1   
    21    10    21 1   
    22    10    22 1   
    23    10    23 1   
    24    11    12 1   
    25    11    24 1   
    26    11    25 1   
    27    11    26 1   
    28    12    27 1   
    29    13    28 1   
@<TRIPOS>SUBSTRUCTURE
     1 J0L         1 TEMP              0 ****  ****    0 ROOT
