@<TRIPOS>MOLECULE
J0L
   28    29     1     0     0
SMALL
bcc


@<TRIPOS>ATOM
      1 C1         -14.8290    10.0150    21.7410 ca         1 J0L      -0.165000
      2 C2         -15.1800     8.7290    22.1380 ca         1 J0L      -0.121000
      3 C3         -15.2100     8.3730    23.4810 ca         1 J0L      -0.116000
      4 C4         -14.5050    11.0120    22.6700 ca         1 J0L       0.131600
      5 C5         -14.5650    10.6300    24.0140 ca         1 J0L       0.007600
      6 C6         -14.8960     9.3460    24.4130 ca         1 J0L      -0.101300
      7 C7         -14.8500     9.2770    25.9150 c5         1 J0L      -0.084700
      8 C8         -14.4690    10.7110    26.2950 c          1 J0L       0.707500
      9 C11        -16.2100     8.9300    26.5210 c3         1 J0L      -0.069100
     10 C12        -13.7730     8.3090    26.4120 c3         1 J0L      -0.069100
     11 C14        -13.9870    12.6460    20.9260 c3         1 J0L       0.185100
     12 N13        -14.1900    12.3100    22.3140 nu         1 J0L      -0.738600
     13 N9         -14.3150    11.4160    25.1430 ns         1 J0L      -0.474100
     14 O10        -14.3320    11.1460    27.4200 o          1 J0L      -0.608500
     15 H1         -14.8060    10.2430    20.6830 ha         1 J0L       0.133000
     16 H2         -15.4220     7.9970    21.3790 ha         1 J0L       0.132000
     17 H3         -15.4720     7.3680    23.7870 ha         1 J0L       0.137000
     18 H4         -16.1630     8.9610    27.6100 hc         1 J0L       0.045033
     19 H5         -16.9860     9.6210    26.1910 hc         1 J0L       0.045033
     20 H6         -16.5060     7.9230    26.2250 hc         1 J0L       0.045033
     21 H7         -13.7030     8.3380    27.5000 hc         1 J0L       0.045033
     22 H8         -14.0220     7.2900    26.1150 hc         1 J0L       0.045033
     23 H9         -12.7930     8.5510    25.9980 hc         1 J0L       0.045033
     24 H10        -13.6900    13.6900    20.8630 h1         1 J0L       0.036367
     25 H11        -13.2160    12.0420    20.4330 h1         1 J0L       0.036367
     26 H12        -14.9130    12.5340    20.3590 h1         1 J0L       0.036367
     27 H13        -13.5240    12.7590    22.9220 hn         1 J0L       0.398800
     28 H14        -14.1070    12.4030    25.1350 hn         1 J0L       0.335500
@<TRIPOS>BOND
     1     1     2 ar  
     2     1     4 ar  
     3     1    15 1   
     4     2     3 ar  
     5     2    16 1   
     6     3     6 ar  
     7     3    17 1   
     8     4     5 ar  
     9     4    12 1   
    10     5     6 ar  
    11     5    13 1   
    12     6     7 1   
    13     7     8 1   
    14     7     9 1   
    15     7    10 1   
    16     8    13 1   
    17     8    14 2   
    18     9    18 1   
    19     9    19 1   
    20     9    20 1   
    21    10    21 1   
    22    10    22 1   
    23    10    23 1   
    24    11    12 1   
    25    11    24 1   
    26    11    25 1   
    27    11    26 1   
    28    12    27 1   
    29    13    28 1   
@<TRIPOS>SUBSTRUCTURE
     1 J0L         1 TEMP              0 ****  ****    0 ROOT
