@<TRIPOS>MOLECULE
J0M
   24    23     1     0     0
SMALL
No Charge or Current Charge


@<TRIPOS>ATOM
      1 C4           1.7440     0.6890    -0.0290 c3         1 J0M      -0.017700
      2 C5          -3.4510     0.5270    -0.0670 c3         1 J0M       0.122600
      3 C6           3.0120    -0.2110    -0.2690 c          1 J0M       0.701000
      4 C3          -2.1390    -0.2870     0.0920 c3         1 J0M       0.138300
      5 C1          -0.8580     0.5320    -0.2550 c3         1 J0M       0.103300
      6 C2           0.4590    -0.1470     0.2510 c3         1 J0M       0.150300
      7 O1          -0.8250     0.6920    -1.6870 oh         1 J0M      -0.728000
      8 O2           0.4310    -0.2880     1.6740 oh         1 J0M      -0.710000
      9 O3          -2.2270    -1.4430    -0.7680 oh         1 J0M      -0.699000
     10 O4           1.9370     1.6640     1.0550 oh         1 J0M      -0.780000
     11 O6           4.0420     0.1090     0.3120 o          1 J0M      -0.714500
     12 O7           2.9360    -1.1660    -1.0290 o          1 J0M      -0.714500
     13 H1           1.6070     1.2260    -0.9770 h1         1 J0M       0.044700
     14 H3          -3.4940     0.9730    -1.0700 h1         1 J0M       0.023200
     15 H4          -2.0810    -0.5970     1.1460 h1         1 J0M       0.096700
     16 H5          -0.9320     1.5150     0.2340 h1         1 J0M       0.078700
     17 H6           0.5380    -1.1310    -0.2350 h1         1 J0M       0.089700
     18 H7          -1.2620    -0.1330    -2.0170 ho         1 J0M       0.498000
     19 H8           0.9870     0.4990     1.9270 ho         1 J0M       0.499000
     20 H9          -3.1810    -1.6980    -0.7160 ho         1 J0M       0.485000
     21 H10          2.9220     1.7760     1.1310 ho         1 J0M       0.539000
     22 H11         -5.3930     0.2330     0.0990 ho         1 J0M       0.488000
     23 O5          -4.5870    -0.3340     0.1430 oh         1 J0M      -0.716000
     24 H2          -3.4530     1.3480     0.6630 h1         1 J0M       0.023200
@<TRIPOS>BOND
     1     1     3 1   
     2     1     6 1   
     3     1    10 1   
     4     1    13 1   
     5     2     4 1   
     6     2    14 1   
     7     2    23 1   
     8     2    24 1   
     9     3    11 1   
    10     3    12 1   
    11     4     5 1   
    12     4     9 1   
    13     4    15 1   
    14     5     6 1   
    15     5     7 1   
    16     5    16 1   
    17     6     8 1   
    18     6    17 1   
    19     7    18 1   
    20     8    19 1   
    21     9    20 1   
    22    10    21 1   
    23    22    23 1   
@<TRIPOS>SUBSTRUCTURE
     1 J0M         1 TEMP              0 ****  ****    0 ROOT
