@<TRIPOS>MOLECULE
J0M
   24    23     1     0     0
SMALL
abcg2


@<TRIPOS>ATOM
      1 C4           1.6380     0.6440    -0.2820 c3         1 J0M      -0.017700
      2 C5          -3.4050     0.5240     0.0410 c3         1 J0M       0.122600
      3 C6           2.9350    -0.1790    -0.1100 c          1 J0M       0.701000
      4 C3          -2.1290    -0.2750     0.2430 c3         1 J0M       0.138300
      5 C1          -0.9040     0.5310    -0.2050 c3         1 J0M       0.103300
      6 C2           0.4170    -0.2050     0.0720 c3         1 J0M       0.150300
      7 O1          -0.9910     0.9010    -1.5680 oh         1 J0M      -0.728000
      8 O2           0.4900    -0.6250     1.4170 oh         1 J0M      -0.710000
      9 O3          -2.1910    -1.5430    -0.3780 oh         1 J0M      -0.699000
     10 O4           1.6970     1.7760     0.5530 oh         1 J0M      -0.780000
     11 O6           3.7560     0.3060     0.7030 o          1 J0M      -0.714500
     12 O7           3.0560    -1.2140    -0.7810 o          1 J0M      -0.714500
     13 H1           1.5690     0.9450    -1.3350 h1         1 J0M       0.044700
     14 H3          -3.5740     0.6840    -1.0320 h1         1 J0M       0.023200
     15 H4          -2.0200    -0.4670     1.3140 h1         1 J0M       0.096700
     16 H5          -0.9080     1.4690     0.3620 h1         1 J0M       0.078700
     17 H6           0.4440    -1.1110    -0.5420 h1         1 J0M       0.089700
     18 H7          -0.8080     0.1270    -2.1120 ho         1 J0M       0.498000
     19 H8           0.6640     0.1600     1.9490 ho         1 J0M       0.499000
     20 H9          -2.5390    -1.4400    -1.2700 ho         1 J0M       0.485000
     21 H10          2.5670     1.6610     0.9840 ho         1 J0M       0.539000
     22 H11         -5.2830     0.3300     0.4620 ho         1 J0M       0.488000
     23 O5          -4.4790    -0.1680     0.6340 oh         1 J0M      -0.716000
     24 H2          -3.2680     1.5180     0.4890 h1         1 J0M       0.023200
@<TRIPOS>BOND
     1     1     3 1   
     2     1     6 1   
     3     1    10 1   
     4     1    13 1   
     5     2     4 1   
     6     2    14 1   
     7     2    23 1   
     8     2    24 1   
     9     3    11 1   
    10     3    12 1   
    11     4     5 1   
    12     4     9 1   
    13     4    15 1   
    14     5     6 1   
    15     5     7 1   
    16     5    16 1   
    17     6     8 1   
    18     6    17 1   
    19     7    18 1   
    20     8    19 1   
    21     9    20 1   
    22    10    21 1   
    23    22    23 1   
@<TRIPOS>SUBSTRUCTURE
     1 J0M         1 TEMP              0 ****  ****    0 ROOT
