@<TRIPOS>MOLECULE
J0O
   52    56     1     0     0
SMALL
abcg2


@<TRIPOS>ATOM
      1 N3          28.9470   -46.4220   -13.5900 ns         1 J0O      -0.136000
      2 C4          29.2620   -47.2000   -12.4700 ca         1 J0O      -0.009000
      3 C5          28.3050   -48.1660   -12.1130 ca         1 J0O      -0.161000
      4 C6          28.4940   -48.9910   -11.0210 ca         1 J0O      -0.039000
      5 C7          30.4270   -47.0640   -11.7220 ca         1 J0O      -0.111000
      6 C8          30.6190   -47.8890   -10.6140 ca         1 J0O       0.166400
      7 N12         31.7140   -47.8410    -9.7910 nc         1 J0O      -0.634100
      8 C15         27.6140   -44.4860   -15.5570 cc         1 J0O      -0.254600
      9 C20         26.4050   -45.0480   -14.9250 c          1 J0O       0.665700
     10 C24         23.7930   -42.9940   -14.2420 cy         1 J0O      -0.117400
     11 C26         32.3110   -49.7320    -6.7290 c6         1 J0O       0.179800
     12 C1          29.6410   -45.3960   -14.1180 c          1 J0O       0.633700
     13 O2          30.7410   -45.0230   -13.7450 o          1 J0O      -0.595100
     14 C9          29.6530   -48.8470   -10.2770 ca         1 J0O      -0.220000
     15 S10         30.1650   -49.7140    -8.8610 ss         1 J0O      -0.042200
     16 C11         31.6330   -48.7270    -8.8490 cd         1 J0O       0.652100
     17 N13         32.5770   -48.9370    -7.9150 nh         1 J0O      -0.725600
     18 C14         28.9560   -44.6990   -15.2440 cd         1 J0O      -0.155600
     19 C16         27.6510   -43.6450   -16.6780 cc         1 J0O       0.261900
     20 N17         28.8900   -43.3770   -17.0300 nd         1 J0O      -0.514800
     21 N18         29.6660   -44.0000   -16.1560 na         1 J0O       0.178800
     22 C19         31.1030   -43.8680   -16.3080 c3         1 J0O       0.069900
     23 O21         26.3680   -46.2030   -14.4860 o          1 J0O      -0.642100
     24 N22         25.3370   -44.2590   -14.8750 nj         1 J0O      -0.402800
     25 C23         24.0810   -44.5070   -14.1770 cy         1 J0O       0.100000
     26 C25         25.1280   -42.8150   -14.9900 cy         1 J0O       0.100000
     27 C27         33.6100   -50.3050    -6.1930 c6         1 J0O       0.143600
     28 O28         34.5680   -49.3000    -5.9690 os         1 J0O      -0.442000
     29 C29         34.8730   -48.6310    -7.1700 c6         1 J0O       0.143600
     30 C30         33.6510   -47.9640    -7.7710 c6         1 J0O       0.179800
     31 H1          28.0210   -46.5940   -13.9940 hn         1 J0O       0.207000
     32 H2          27.3980   -48.2630   -12.6960 ha         1 J0O       0.130000
     33 H3          27.7440   -49.7270   -10.7620 ha         1 J0O       0.122000
     34 H4          31.1840   -46.3380   -11.9690 ha         1 J0O       0.160000
     35 H6          23.7530   -42.5040   -13.2720 hc         1 J0O       0.064700
     36 H7          31.8170   -49.1220    -5.9630 h1         1 J0O       0.062700
     37 H8          31.6510   -50.5660    -6.9710 h1         1 J0O       0.062700
     38 H9          26.8270   -43.2600   -17.2570 h4         1 J0O       0.044100
     39 H10         31.2790   -43.4550   -17.2960 h1         1 J0O       0.070367
     40 H11         31.5160   -43.1980   -15.5580 h1         1 J0O       0.070367
     41 H12         31.5910   -44.8350   -16.2330 h1         1 J0O       0.070367
     42 H13         23.3920   -45.1430   -14.7350 h1         1 J0O       0.061450
     43 H14         24.2160   -44.9210   -13.1770 h1         1 J0O       0.061450
     44 H15         25.8870   -42.2220   -14.4780 h1         1 J0O       0.061450
     45 H16         25.0330   -42.4640   -16.0170 h1         1 J0O       0.061450
     46 H17         33.4190   -50.8010    -5.2400 h1         1 J0O       0.056700
     47 H18         33.9950   -51.0560    -6.8960 h1         1 J0O       0.056700
     48 H19         35.6240   -47.8730    -6.9470 h1         1 J0O       0.056700
     49 H20         35.3040   -49.3290    -7.9020 h1         1 J0O       0.056700
     50 H21         33.9050   -47.5590    -8.7480 h1         1 J0O       0.062700
     51 H22         33.3180   -47.1310    -7.1390 h1         1 J0O       0.062700
     52 H5          22.9120   -42.7210   -14.8170 hc         1 J0O       0.064700
@<TRIPOS>BOND
     1     1     2 1   
     2     1    12 1   
     3     1    31 1   
     4     2     3 ar  
     5     2     5 ar  
     6     3     4 ar  
     7     3    32 1   
     8     4    14 ar  
     9     4    33 1   
    10     5     6 ar  
    11     5    34 1   
    12     6     7 1   
    13     6    14 ar  
    14     7    16 2   
    15     8     9 1   
    16     8    18 2   
    17     8    19 1   
    18     9    23 2   
    19     9    24 1   
    20    10    25 1   
    21    10    26 1   
    22    10    35 1   
    23    10    52 1   
    24    11    17 1   
    25    11    27 1   
    26    11    36 1   
    27    11    37 1   
    28    12    13 2   
    29    12    18 1   
    30    14    15 1   
    31    15    16 1   
    32    16    17 1   
    33    17    30 1   
    34    18    21 1   
    35    19    20 2   
    36    19    38 1   
    37    20    21 1   
    38    21    22 1   
    39    22    39 1   
    40    22    40 1   
    41    22    41 1   
    42    24    25 1   
    43    24    26 1   
    44    25    42 1   
    45    25    43 1   
    46    26    44 1   
    47    26    45 1   
    48    27    28 1   
    49    27    46 1   
    50    27    47 1   
    51    28    29 1   
    52    29    30 1   
    53    29    48 1   
    54    29    49 1   
    55    30    50 1   
    56    30    51 1   
@<TRIPOS>SUBSTRUCTURE
     1 J0O         1 TEMP              0 ****  ****    0 ROOT
