@<TRIPOS>MOLECULE
J0O
   52    56     1     0     0
SMALL
No Charge or Current Charge


@<TRIPOS>ATOM
      1 N3          28.8940   -45.7740   -13.1420 ns         1 J0O      -0.136000
      2 C4          29.1570   -46.5470   -11.9760 ca         1 J0O      -0.009000
      3 C5          28.0410   -47.0730   -11.2880 ca         1 J0O      -0.161000
      4 C6          28.2100   -47.8480   -10.1270 ca         1 J0O      -0.039000
      5 C7          30.4580   -46.8110   -11.4780 ca         1 J0O      -0.111000
      6 C8          30.6250   -47.5850   -10.3180 ca         1 J0O       0.166400
      7 N12         31.8710   -47.8830    -9.7730 nc         1 J0O      -0.634100
      8 C15         27.6900   -44.1290   -15.4810 cc         1 J0O      -0.254600
      9 C20         26.4110   -44.3660   -14.7340 c          1 J0O       0.665700
     10 C24         23.2940   -44.0550   -15.0530 cy         1 J0O      -0.117400
     11 C26         32.4730   -49.7480    -6.5830 c6         1 J0O       0.179800
     12 C1          29.7130   -45.1390   -14.0550 c          1 J0O       0.633700
     13 O2          30.9350   -45.1860   -13.9680 o          1 J0O      -0.595100
     14 C9          29.5110   -48.0870    -9.6680 ca         1 J0O      -0.220000
     15 S10         29.9410   -49.0220    -8.2490 ss         1 J0O      -0.042200
     16 C11         31.6270   -48.6280    -8.6900 cd         1 J0O       0.652100
     17 N13         32.7050   -49.0920    -7.9150 nh         1 J0O      -0.725600
     18 C14         29.0320   -44.4120   -15.1950 cd         1 J0O      -0.155600
     19 C16         27.7080   -43.4650   -16.7240 cc         1 J0O       0.261900
     20 N17         28.8970   -43.2830   -17.2380 nd         1 J0O      -0.514800
     21 N18         29.7260   -43.8540   -16.2930 na         1 J0O       0.178800
     22 C19         31.1810   -43.8470   -16.5270 c3         1 J0O       0.069900
     23 O21         26.4280   -44.8490   -13.6090 o          1 J0O      -0.642100
     24 N22         25.3170   -43.9290   -15.5510 nj         1 J0O      -0.402800
     25 C23         24.3850   -45.1020   -15.4420 cy         1 J0O       0.100000
     26 C25         24.4810   -43.1650   -14.5650 cy         1 J0O       0.100000
     27 C27         33.6730   -50.6300    -6.1290 c6         1 J0O       0.143600
     28 O28         34.9150   -49.8990    -6.2200 os         1 J0O      -0.442000
     29 C29         35.2020   -49.4700    -7.5700 c6         1 J0O       0.143600
     30 C30         34.0860   -48.5250    -8.1000 c6         1 J0O       0.179800
     31 H1          27.9110   -45.6680   -13.3400 hn         1 J0O       0.207000
     32 H2          27.0350   -46.8780   -11.6540 ha         1 J0O       0.130000
     33 H3          27.3480   -48.2520    -9.5990 ha         1 J0O       0.122000
     34 H4          31.3480   -46.4290   -11.9650 ha         1 J0O       0.160000
     35 H6          22.5810   -44.3670   -14.2830 hc         1 J0O       0.064700
     36 H7          32.2900   -48.9800    -5.8180 h1         1 J0O       0.062700
     37 H8          31.5850   -50.3950    -6.6100 h1         1 J0O       0.062700
     38 H9          26.8660   -43.0800   -17.2850 h4         1 J0O       0.044100
     39 H10         31.4060   -43.3540   -17.4810 h1         1 J0O       0.070367
     40 H11         31.6800   -43.3030   -15.7180 h1         1 J0O       0.070367
     41 H12         31.5520   -44.8780   -16.5630 h1         1 J0O       0.070367
     42 H13         24.2030   -45.6000   -16.4010 h1         1 J0O       0.061450
     43 H14         24.5820   -45.8470   -14.6600 h1         1 J0O       0.061450
     44 H15         24.7090   -43.2760   -13.4970 h1         1 J0O       0.061450
     45 H16         24.3760   -42.1040   -14.8190 h1         1 J0O       0.061450
     46 H17         33.5220   -50.9570    -5.0900 h1         1 J0O       0.056700
     47 H18         33.7350   -51.5280    -6.7610 h1         1 J0O       0.056700
     48 H19         36.1700   -48.9490    -7.5860 h1         1 J0O       0.056700
     49 H20         35.2820   -50.3530    -8.2210 h1         1 J0O       0.056700
     50 H21         34.2960   -48.3290    -9.1610 h1         1 J0O       0.062700
     51 H22         34.1630   -47.5610    -7.5760 h1         1 J0O       0.062700
     52 H5          22.7440   -43.6410   -15.9050 hc         1 J0O       0.064700
@<TRIPOS>BOND
     1     1     2 1   
     2     1    12 1   
     3     1    31 1   
     4     2     3 ar  
     5     2     5 ar  
     6     3     4 ar  
     7     3    32 1   
     8     4    14 ar  
     9     4    33 1   
    10     5     6 ar  
    11     5    34 1   
    12     6     7 1   
    13     6    14 ar  
    14     7    16 2   
    15     8     9 1   
    16     8    18 2   
    17     8    19 1   
    18     9    23 2   
    19     9    24 1   
    20    10    25 1   
    21    10    26 1   
    22    10    35 1   
    23    10    52 1   
    24    11    17 1   
    25    11    27 1   
    26    11    36 1   
    27    11    37 1   
    28    12    13 2   
    29    12    18 1   
    30    14    15 1   
    31    15    16 1   
    32    16    17 1   
    33    17    30 1   
    34    18    21 1   
    35    19    20 2   
    36    19    38 1   
    37    20    21 1   
    38    21    22 1   
    39    22    39 1   
    40    22    40 1   
    41    22    41 1   
    42    24    25 1   
    43    24    26 1   
    44    25    42 1   
    45    25    43 1   
    46    26    44 1   
    47    26    45 1   
    48    27    28 1   
    49    27    46 1   
    50    27    47 1   
    51    28    29 1   
    52    29    30 1   
    53    29    48 1   
    54    29    49 1   
    55    30    50 1   
    56    30    51 1   
@<TRIPOS>SUBSTRUCTURE
     1 J0O         1 TEMP              0 ****  ****    0 ROOT
