@<TRIPOS>MOLECULE
J0P
   44    47     1     0     0
SMALL
bcc


@<TRIPOS>ATOM
      1 N1          -7.3100     1.7020    -0.1060 nb         1 J0P      -0.661000
      2 C4           5.3450     0.2850    -2.2160 ca         1 J0P      -0.131000
      3 C5           5.4430     1.2430    -1.2210 ca         1 J0P      -0.118000
      4 C6           4.6650     1.1380    -0.0740 ca         1 J0P       0.054100
      5 C7           3.7910     0.0580     0.0770 ca         1 J0P       0.072100
      6 C8           3.4440     0.6980     2.2920 c6         1 J0P       0.093400
      7 C10         -0.8580    -1.2190     0.1510 ca         1 J0P      -0.139600
      8 C13         -3.4160    -0.0650     0.0470 cp         1 J0P      -0.027000
      9 C15         -1.4410    -0.8930    -1.0720 ca         1 J0P      -0.094000
     10 C17         -5.7510     0.1940     0.9050 ca         1 J0P      -0.238300
     11 C20         -5.0880     1.4950    -0.9690 ca         1 J0P      -0.238300
     12 O            0.7710    -2.5510     1.2330 o          1 J0P      -0.598100
     13 C14         -2.7030    -0.3250    -1.1220 ca         1 J0P      -0.122500
     14 C16         -4.7570     0.5440    -0.0060 cp         1 J0P       0.003000
     15 C19         -6.3630     2.0370    -0.9750 ca         1 J0P       0.399700
     16 C18         -6.9960     0.7950     0.8120 ca         1 J0P       0.399700
     17 C12         -2.8330    -0.4020     1.2700 ca         1 J0P      -0.122500
     18 C11         -1.5760    -0.9770     1.3200 ca         1 J0P      -0.094000
     19 N            1.3460    -1.5950    -0.7360 ns         1 J0P      -0.560900
     20 C1           2.7190    -2.0490    -0.7730 c3         1 J0P       0.155300
     21 C2           3.6790    -0.9010    -0.9310 ca         1 J0P      -0.117300
     22 O1           3.0390    -0.0980     1.1910 os         1 J0P      -0.295900
     23 C9           3.7380     2.1060     1.8360 c6         1 J0P       0.093400
     24 O2           4.7800     2.0990     0.8730 os         1 J0P      -0.306900
     25 C3           4.4560    -0.7730    -2.0760 ca         1 J0P      -0.121000
     26 H2           6.1210     2.0820    -1.3210 ha         1 J0P       0.147000
     27 H3           2.6270     0.6920     3.0120 h1         1 J0P       0.070700
     28 H4           4.3280     0.2600     2.7690 h1         1 J0P       0.070700
     29 H5          -0.9350    -1.1040    -2.0060 ha         1 J0P       0.143500
     30 H6          -5.5770    -0.5510     1.6700 ha         1 J0P       0.143000
     31 H7          -4.3630     1.8330    -1.6980 ha         1 J0P       0.143000
     32 H8          -3.1410    -0.1060    -2.0870 ha         1 J0P       0.137000
     33 H9          -6.6270     2.7830    -1.7170 h4         1 J0P       0.019600
     34 H10         -7.7780     0.5230     1.5130 h4         1 J0P       0.019600
     35 H11         -3.3560    -0.1980     2.1950 ha         1 J0P       0.137000
     36 H12         -1.1450    -1.2280     2.2800 ha         1 J0P       0.143500
     37 H13          1.0690    -0.9500    -1.4580 hn         1 J0P       0.313500
     38 H14          2.9160    -2.6030     0.1440 h1         1 J0P       0.066700
     39 H15          2.8550    -2.7450    -1.6030 h1         1 J0P       0.066700
     40 H16          2.8380     2.5660     1.4130 h1         1 J0P       0.067200
     41 H17          4.0750     2.7160     2.6720 h1         1 J0P       0.067200
     42 H18          4.3670    -1.5150    -2.8590 ha         1 J0P       0.135000
     43 C            0.4940    -1.8510     0.2700 c          1 J0P       0.687700
     44 H1           5.9510     0.3720    -3.1080 ha         1 J0P       0.138000
@<TRIPOS>BOND
     1     1    15 ar  
     2     1    16 ar  
     3     2     3 ar  
     4     2    25 ar  
     5     2    44 1   
     6     3     4 ar  
     7     3    26 1   
     8     4     5 ar  
     9     4    24 1   
    10     5    21 ar  
    11     5    22 1   
    12     6    22 1   
    13     6    23 1   
    14     6    27 1   
    15     6    28 1   
    16     7     9 ar  
    17     7    18 ar  
    18     7    43 1   
    19     8    13 ar  
    20     8    14 1   
    21     8    17 ar  
    22     9    13 ar  
    23     9    29 1   
    24    10    14 ar  
    25    10    16 ar  
    26    10    30 1   
    27    11    14 ar  
    28    11    15 ar  
    29    11    31 1   
    30    12    43 2   
    31    13    32 1   
    32    15    33 1   
    33    16    34 1   
    34    17    18 ar  
    35    17    35 1   
    36    18    36 1   
    37    19    20 1   
    38    19    37 1   
    39    19    43 1   
    40    20    21 1   
    41    20    38 1   
    42    20    39 1   
    43    21    25 ar  
    44    23    24 1   
    45    23    40 1   
    46    23    41 1   
    47    25    42 1   
@<TRIPOS>SUBSTRUCTURE
     1 J0P         1 TEMP              0 ****  ****    0 ROOT
