@<TRIPOS>MOLECULE
J0P
   44    47     1     0     0
SMALL
No Charge or Current Charge


@<TRIPOS>ATOM
      1 N1          -7.6720     1.6420    -0.4730 nb         1 J0P      -0.661000
      2 C4           4.8640    -0.2510    -2.5230 ca         1 J0P      -0.113000
      3 C5           5.4120     0.8480    -1.8410 ca         1 J0P      -0.100000
      4 C6           5.0630     1.0860    -0.5030 ca         1 J0P       0.054100
      5 C7           4.1780     0.2030     0.1690 ca         1 J0P       0.072100
      6 C8           4.6750     1.3410     2.2450 c6         1 J0P       0.116600
      7 C10         -1.1690    -1.3820     0.3510 ca         1 J0P      -0.139600
      8 C13         -3.7500    -0.1810     0.0230 cp         1 J0P      -0.027000
      9 C15         -1.3090    -0.1250    -0.2860 ca         1 J0P      -0.076000
     10 C17         -6.2690    -0.3290    -0.3390 ca         1 J0P      -0.155000
     11 C20         -5.2820     1.8500    -0.1270 ca         1 J0P      -0.155000
     12 O            0.3020    -3.1350     1.0910 o          1 J0P      -0.598100
     13 C14         -2.5770     0.4600    -0.4430 ca         1 J0P      -0.104500
     14 C16         -5.1000     0.4470    -0.1480 cp         1 J0P       0.003000
     15 C19         -6.5650     2.3980    -0.2900 ca         1 J0P       0.334400
     16 C18         -7.5150     0.2990    -0.4970 ca         1 J0P       0.334400
     17 C12         -3.6000    -1.4380     0.6570 ca         1 J0P      -0.104500
     18 C11         -2.3350    -2.0270     0.8190 ca         1 J0P      -0.076000
     19 N            1.2790    -1.3690     0.0650 ns         1 J0P      -0.493900
     20 C1           2.6540    -1.8480     0.1740 c3         1 J0P       0.155300
     21 C2           3.6200    -0.8970    -0.5190 ca         1 J0P      -0.117300
     22 O1           3.8530     0.4200     1.4960 os         1 J0P      -0.319100
     23 C9           4.9780     2.5870     1.3880 c6         1 J0P       0.116600
     24 O2           5.5920     2.1870     0.1440 os         1 J0P      -0.330100
     25 C3           3.9690    -1.1150    -1.8670 ca         1 J0P      -0.103000
     26 H2           6.0960     1.5210    -2.3520 ha         1 J0P       0.129000
     27 H3           4.1550     1.6220     3.1720 h1         1 J0P       0.070700
     28 H4           5.6170     0.8420     2.5140 h1         1 J0P       0.070700
     29 H5          -0.4470     0.4150    -0.6680 ha         1 J0P       0.125500
     30 H6          -6.2170    -1.4120    -0.3820 ha         1 J0P       0.125000
     31 H7          -4.4420     2.5190     0.0290 ha         1 J0P       0.125000
     32 H8          -2.6490     1.4200    -0.9480 ha         1 J0P       0.119000
     33 H9          -6.7130     3.4770    -0.2710 h4         1 J0P       0.019600
     34 H10         -8.4180    -0.2910    -0.6490 h4         1 J0P       0.019600
     35 H11         -4.4720    -1.9590     1.0430 ha         1 J0P       0.119000
     36 H12         -2.2650    -2.9930     1.3150 ha         1 J0P       0.125500
     37 H13          1.1190    -0.4730    -0.3720 hn         1 J0P       0.313500
     38 H14          2.9170    -1.9510     1.2350 h1         1 J0P       0.066700
     39 H15          2.7220    -2.8440    -0.2840 h1         1 J0P       0.066700
     40 H16          4.0410     3.1180     1.1700 h1         1 J0P       0.067200
     41 H17          5.6490     3.2730     1.9220 h1         1 J0P       0.067200
     42 H18          3.5470    -1.9590    -2.4090 ha         1 J0P       0.117000
     43 C            0.1810    -2.0470     0.5420 c          1 J0P       0.620700
     44 H1           5.1280    -0.4320    -3.5630 ha         1 J0P       0.120000
@<TRIPOS>BOND
     1     1    15 ar  
     2     1    16 ar  
     3     2     3 ar  
     4     2    25 ar  
     5     2    44 1   
     6     3     4 ar  
     7     3    26 1   
     8     4     5 ar  
     9     4    24 1   
    10     5    21 ar  
    11     5    22 1   
    12     6    22 1   
    13     6    23 1   
    14     6    27 1   
    15     6    28 1   
    16     7     9 ar  
    17     7    18 ar  
    18     7    43 1   
    19     8    13 ar  
    20     8    14 1   
    21     8    17 ar  
    22     9    13 ar  
    23     9    29 1   
    24    10    14 ar  
    25    10    16 ar  
    26    10    30 1   
    27    11    14 ar  
    28    11    15 ar  
    29    11    31 1   
    30    12    43 2   
    31    13    32 1   
    32    15    33 1   
    33    16    34 1   
    34    17    18 ar  
    35    17    35 1   
    36    18    36 1   
    37    19    20 1   
    38    19    37 1   
    39    19    43 1   
    40    20    21 1   
    41    20    38 1   
    42    20    39 1   
    43    21    25 ar  
    44    23    24 1   
    45    23    40 1   
    46    23    41 1   
    47    25    42 1   
@<TRIPOS>SUBSTRUCTURE
     1 J0P         1 TEMP              0 ****  ****    0 ROOT
