@<TRIPOS>MOLECULE
J0R
   29    28     1     0     0
SMALL
No Charge or Current Charge


@<TRIPOS>ATOM
      1 C1          -6.9580     3.4520    20.8530 c3         1 J0R      -0.126100
      2 C2          -7.7150     2.7460    19.7070 c3         1 J0R       0.164300
      3 C5          -4.9760     0.9110    20.4860 c3         1 J0R       0.077900
      4 C7          -8.1720     4.6800    18.3040 c          1 J0R       0.598100
      5 C6          -5.1470     1.8260    18.1520 c3         1 J0R       0.077900
      6 C8          -7.7950     5.3210    16.9790 c3         1 J0R      -0.155100
      7 C3          -7.2780     1.2740    19.4470 c3         1 J0R       0.098600
      8 C4          -5.7630    -0.5390    18.6280 c3         1 J0R       0.077900
      9 N1          -5.7940     0.8910    19.1850 n4         1 J0R      -0.494000
     10 O1          -7.5080     3.4930    18.4890 os         1 J0R      -0.490100
     11 O2          -9.0120     5.1380    19.0640 o          1 J0R      -0.445000
     12 H1          -6.9280     2.8140    21.7440 hc         1 J0R       0.065700
     13 H2          -5.9310     3.6910    20.5560 hc         1 J0R       0.065700
     14 H3          -7.4560     4.3870    21.1330 hc         1 J0R       0.065700
     15 H4          -8.7850     2.7130    19.9600 h1         1 J0R       0.099700
     16 H5          -5.4540     0.2620    21.2240 hx         1 J0R       0.097367
     17 H6          -3.9670     0.5460    20.2800 hx         1 J0R       0.097367
     18 H7          -4.9170     1.9280    20.8730 hx         1 J0R       0.097367
     19 H8          -5.1330     2.8430    18.5460 hx         1 J0R       0.097367
     20 H9          -4.1260     1.4950    17.9520 hx         1 J0R       0.097367
     21 H10         -5.7310     1.8020    17.2300 hx         1 J0R       0.097367
     22 H11         -8.3490     6.2450    16.7850 hc         1 J0R       0.081033
     23 H12         -6.7110     5.4800    16.9620 hc         1 J0R       0.081033
     24 H13         -7.9340     4.5850    16.1800 hc         1 J0R       0.081033
     25 H14         -7.6130     0.6720    20.2930 hx         1 J0R       0.098700
     26 H15         -7.8420     0.9380    18.5740 hx         1 J0R       0.098700
     27 H16         -6.2110    -1.2210    19.3540 hx         1 J0R       0.097367
     28 H17         -6.3270    -0.5760    17.6930 hx         1 J0R       0.097367
     29 H18         -4.7270    -0.8320    18.4410 hx         1 J0R       0.097367
@<TRIPOS>BOND
     1     1     2 1   
     2     1    12 1   
     3     1    13 1   
     4     1    14 1   
     5     2     7 1   
     6     2    10 1   
     7     2    15 1   
     8     3     9 1   
     9     3    16 1   
    10     3    17 1   
    11     3    18 1   
    12     4     6 1   
    13     4    10 1   
    14     4    11 2   
    15     5     9 1   
    16     5    19 1   
    17     5    20 1   
    18     5    21 1   
    19     6    22 1   
    20     6    23 1   
    21     6    24 1   
    22     7     9 1   
    23     7    25 1   
    24     7    26 1   
    25     8     9 1   
    26     8    27 1   
    27     8    28 1   
    28     8    29 1   
@<TRIPOS>SUBSTRUCTURE
     1 J0R         1 TEMP              0 ****  ****    0 ROOT
