@<TRIPOS>MOLECULE
J0R
   29    28     1     0     0
SMALL
abcg2


@<TRIPOS>ATOM
      1 C1          -6.9270     3.4590    20.9020 c3         1 J0R      -0.126100
      2 C2          -7.5880     2.7910    19.7100 c3         1 J0R       0.164300
      3 C5          -5.0110     0.9030    20.4510 c3         1 J0R       0.077900
      4 C7          -8.1920     4.6050    18.2820 c          1 J0R       0.598100
      5 C6          -5.0810     1.7870    18.1830 c3         1 J0R       0.077900
      6 C8          -7.8570     5.2510    16.9720 c3         1 J0R      -0.155100
      7 C3          -7.2230     1.3460    19.3980 c3         1 J0R       0.098600
      8 C4          -5.8280    -0.4670    18.6410 c3         1 J0R       0.077900
      9 N1          -5.7870     0.9290    19.1780 n4         1 J0R      -0.494000
     10 O1          -7.3960     3.5580    18.5170 os         1 J0R      -0.490100
     11 O2          -9.0630     4.9570    19.0330 o          1 J0R      -0.445000
     12 H1          -6.9600     2.8020    21.7710 hc         1 J0R       0.065700
     13 H2          -5.8900     3.7320    20.7100 hc         1 J0R       0.065700
     14 H3          -7.4640     4.3700    21.1610 hc         1 J0R       0.065700
     15 H4          -8.6600     2.7170    19.9160 h1         1 J0R       0.099700
     16 H5          -5.5340     0.2830    21.1750 hx         1 J0R       0.097367
     17 H6          -4.0300     0.4800    20.2490 hx         1 J0R       0.097367
     18 H7          -4.8890     1.9070    20.8380 hx         1 J0R       0.097367
     19 H8          -4.9470     2.7880    18.5800 hx         1 J0R       0.097367
     20 H9          -4.1070     1.3460    17.9870 hx         1 J0R       0.097367
     21 H10         -5.6590     1.8210    17.2640 hx         1 J0R       0.097367
     22 H11         -8.4630     6.1400    16.8220 hc         1 J0R       0.081033
     23 H12         -6.8030     5.5220    16.9320 hc         1 J0R       0.081033
     24 H13         -8.0420     4.5540    16.1530 hc         1 J0R       0.081033
     25 H14         -7.5910     0.7230    20.2140 hx         1 J0R       0.098700
     26 H15         -7.7600     1.0540    18.4950 hx         1 J0R       0.098700
     27 H16         -6.3570    -1.1050    19.3440 hx         1 J0R       0.097367
     28 H17         -6.3410    -0.4660    17.6830 hx         1 J0R       0.097367
     29 H18         -4.8090    -0.8240    18.5130 hx         1 J0R       0.097367
@<TRIPOS>BOND
     1     1     2 1   
     2     1    12 1   
     3     1    13 1   
     4     1    14 1   
     5     2     7 1   
     6     2    10 1   
     7     2    15 1   
     8     3     9 1   
     9     3    16 1   
    10     3    17 1   
    11     3    18 1   
    12     4     6 1   
    13     4    10 1   
    14     4    11 2   
    15     5     9 1   
    16     5    19 1   
    17     5    20 1   
    18     5    21 1   
    19     6    22 1   
    20     6    23 1   
    21     6    24 1   
    22     7     9 1   
    23     7    25 1   
    24     7    26 1   
    25     8     9 1   
    26     8    27 1   
    27     8    28 1   
    28     8    29 1   
@<TRIPOS>SUBSTRUCTURE
     1 J0R         1 TEMP              0 ****  ****    0 ROOT
