@<TRIPOS>MOLECULE
J0S
   77    80     1     0     0
SMALL
abcg2


@<TRIPOS>ATOM
      1 O39         -3.3420     5.6360     1.6790 os         1 J0S      -0.336100
      2 C40         -2.0720     6.1720     2.0060 c3         1 J0S       0.145900
      3 C2          -3.4050     4.5150     0.9530 ca         1 J0S       0.197100
      4 C3          -2.2890     3.8230     0.4790 ca         1 J0S      -0.199000
      5 C4          -2.4590     2.6680    -0.2650 ca         1 J0S       0.031500
      6 C5          -3.7320     2.1950    -0.5430 ca         1 J0S      -0.337500
      7 C6          -4.8490     2.8860    -0.0810 ca         1 J0S       0.031500
      8 C7          -4.6870     4.0360     0.6650 ca         1 J0S      -0.199000
      9 S8          -3.9360     0.7230    -1.5000 sy         1 J0S       1.195600
     10 O9          -5.3220     0.7130    -1.9450 o          1 J0S      -0.546000
     11 O10         -2.8770     0.6670    -2.4990 o          1 J0S      -0.546000
     12 N11         -3.6950    -0.5380    -0.4840 n3         1 J0S      -0.783500
     13 C12         -4.5990    -0.6900     0.6520 c3         1 J0S       0.230800
     14 C13         -5.8360    -1.5480     0.3880 c3         1 J0S      -0.084700
     15 C14         -5.4720    -2.9480    -0.0910 c3         1 J0S      -0.085100
     16 C15         -6.6720    -1.6110     1.6620 c3         1 J0S      -0.085100
     17 C16         -2.5150    -1.3830    -0.5920 c3         1 J0S       0.207800
     18 C17         -1.2350    -0.7630    -0.0350 c3         1 J0S       0.125300
     19 O18         -1.4080    -0.2040     1.2450 oh         1 J0S      -0.655000
     20 C19         -0.0570    -1.7480    -0.0860 c3         1 J0S       0.097700
     21 N20          1.1550    -1.0410     0.2520 ns         1 J0S      -0.490900
     22 C21          2.3050    -1.1780    -0.4350 c          1 J0S       0.647100
     23 O22          2.4350    -1.7570    -1.4920 o          1 J0S      -0.531000
     24 O23          3.3040    -0.5530     0.2050 os         1 J0S      -0.458100
     25 C24          4.5970    -0.5970    -0.3790 c5         1 J0S       0.193300
     26 C25          4.7950     0.3850    -1.5310 c5         1 J0S      -0.122400
     27 C26          6.3110     0.4980    -1.6200 c5         1 J0S       0.153300
     28 O27          6.7580     1.8170    -1.9280 os         1 J0S      -0.411100
     29 C28          7.4300     2.3460    -0.8880 c          1 J0S       0.699100
     30 O41          7.8820     3.4660    -0.9240 o          1 J0S      -0.533000
     31 N29          7.4890     1.4480     0.1090 ns         1 J0S      -0.544900
     32 C30          6.8510     0.1970    -0.1950 c5         1 J0S       0.078700
     33 C31          5.6250    -0.1490     0.6550 c5         1 J0S      -0.101400
     34 C32         -0.2380    -2.9770     0.8230 c3         1 J0S      -0.056100
     35 C33          0.9920    -4.8770    -0.2690 ca         1 J0S      -0.099000
     36 C34          2.0970    -5.7050    -0.3960 ca         1 J0S      -0.106000
     37 C35          3.1700    -5.5750     0.4770 ca         1 J0S      -0.105000
     38 C36          3.1240    -4.6160     1.4790 ca         1 J0S      -0.106000
     39 C37          2.0130    -3.7920     1.6050 ca         1 J0S      -0.099000
     40 C38          0.9360    -3.9090     0.7310 ca         1 J0S      -0.086300
     41 H1          -2.2590     7.0660     2.5940 h1         1 J0S       0.046700
     42 H2          -1.4790     5.4740     2.6020 h1         1 J0S       0.046700
     43 H3          -1.5070     6.4490     1.1130 h1         1 J0S       0.046700
     44 H4          -1.2840     4.1680     0.6740 ha         1 J0S       0.127500
     45 H5          -1.5790     2.1580    -0.6310 ha         1 J0S       0.133500
     46 H6          -5.8480     2.5380    -0.3020 ha         1 J0S       0.133500
     47 H7          -5.5530     4.5760     1.0240 ha         1 J0S       0.127500
     48 H8          -4.0230    -1.1300     1.4690 h1         1 J0S       0.044700
     49 H9          -4.9050     0.2960     1.0150 h1         1 J0S       0.044700
     50 H10         -6.4290    -1.0590    -0.3890 hc         1 J0S       0.079700
     51 H11         -6.3700    -3.5410    -0.2680 hc         1 J0S       0.033867
     52 H12         -4.9090    -2.9270    -1.0260 hc         1 J0S       0.033867
     53 H13         -4.8710    -3.4760     0.6540 hc         1 J0S       0.033867
     54 H14         -6.9630    -0.6160     2.0040 hc         1 J0S       0.033867
     55 H15         -7.5860    -2.1840     1.5000 hc         1 J0S       0.033867
     56 H16         -6.1190    -2.0930     2.4710 hc         1 J0S       0.033867
     57 H17         -2.7720    -2.2990    -0.0580 h1         1 J0S       0.067200
     58 H18         -2.3490    -1.6850    -1.6260 h1         1 J0S       0.067200
     59 H19         -0.9530     0.0730    -0.6810 h1         1 J0S       0.099700
     60 H20         -1.7000    -0.8850     1.8610 ho         1 J0S       0.441000
     61 H21          0.0420    -2.0920    -1.1180 h1         1 J0S       0.098700
     62 H22          1.1880    -0.5830     1.1500 hn         1 J0S       0.329500
     63 H23          4.8200    -1.6150    -0.7100 h1         1 J0S       0.069700
     64 H24          4.3380     0.0610    -2.4650 hc         1 J0S       0.083200
     65 H25          4.3640     1.3520    -1.2530 hc         1 J0S       0.083200
     66 H26          6.7240    -0.1810    -2.3660 h1         1 J0S       0.085700
     67 H27          7.9990     1.6300     0.9580 hn         1 J0S       0.349500
     68 H28          7.5720    -0.6220    -0.2000 h1         1 J0S       0.069700
     69 H29          5.2630     0.7480     1.1630 hc         1 J0S       0.070200
     70 H30          5.8270    -0.9090     1.4090 hc         1 J0S       0.070200
     71 H31         -0.3680    -2.6550     1.8600 hc         1 J0S       0.049700
     72 H32         -1.1490    -3.5080     0.5410 hc         1 J0S       0.049700
     73 H34          2.1210    -6.4540    -1.1780 ha         1 J0S       0.112500
     74 H35          4.0340    -6.2200     0.3780 ha         1 J0S       0.113000
     75 H36          3.9540    -4.5080     2.1660 ha         1 J0S       0.112500
     76 H37          1.9870    -3.0500     2.3940 ha         1 J0S       0.109000
     77 H33          0.1620    -4.9830    -0.9580 ha         1 J0S       0.109000
@<TRIPOS>BOND
     1     1     2 1   
     2     1     3 1   
     3     2    41 1   
     4     2    42 1   
     5     2    43 1   
     6     3     4 ar  
     7     3     8 ar  
     8     4     5 ar  
     9     4    44 1   
    10     5     6 ar  
    11     5    45 1   
    12     6     7 ar  
    13     6     9 1   
    14     7     8 ar  
    15     7    46 1   
    16     8    47 1   
    17     9    10 2   
    18     9    11 2   
    19     9    12 1   
    20    12    13 1   
    21    12    17 1   
    22    13    14 1   
    23    13    48 1   
    24    13    49 1   
    25    14    15 1   
    26    14    16 1   
    27    14    50 1   
    28    15    51 1   
    29    15    52 1   
    30    15    53 1   
    31    16    54 1   
    32    16    55 1   
    33    16    56 1   
    34    17    18 1   
    35    17    57 1   
    36    17    58 1   
    37    18    19 1   
    38    18    20 1   
    39    18    59 1   
    40    19    60 1   
    41    20    21 1   
    42    20    34 1   
    43    20    61 1   
    44    21    22 1   
    45    21    62 1   
    46    22    23 2   
    47    22    24 1   
    48    24    25 1   
    49    25    26 1   
    50    25    33 1   
    51    25    63 1   
    52    26    27 1   
    53    26    64 1   
    54    26    65 1   
    55    27    28 1   
    56    27    32 1   
    57    27    66 1   
    58    28    29 1   
    59    29    30 2   
    60    29    31 1   
    61    31    32 1   
    62    31    67 1   
    63    32    33 1   
    64    32    68 1   
    65    33    69 1   
    66    33    70 1   
    67    34    40 1   
    68    34    71 1   
    69    34    72 1   
    70    35    36 ar  
    71    35    40 ar  
    72    35    77 1   
    73    36    37 ar  
    74    36    73 1   
    75    37    38 ar  
    76    37    74 1   
    77    38    39 ar  
    78    38    75 1   
    79    39    40 ar  
    80    39    76 1   
@<TRIPOS>SUBSTRUCTURE
     1 J0S         1 TEMP              0 ****  ****    0 ROOT
