@<TRIPOS>MOLECULE
J0S
   77    80     1     0     0
SMALL
No Charge or Current Charge


@<TRIPOS>ATOM
      1 O39         -4.1130     5.5350     0.9140 os         1 J0S      -0.336100
      2 C40         -3.0450     6.1810     1.6290 c3         1 J0S       0.145900
      3 C2          -3.9620     4.2940     0.3300 ca         1 J0S       0.197100
      4 C3          -2.7530     3.5700     0.3820 ca         1 J0S      -0.199000
      5 C4          -2.6580     2.3100    -0.2310 ca         1 J0S       0.031500
      6 C5          -3.7750     1.7590    -0.8900 ca         1 J0S      -0.337500
      7 C6          -4.9770     2.4900    -0.9580 ca         1 J0S       0.031500
      8 C7          -5.0650     3.7490    -0.3430 ca         1 J0S      -0.199000
      9 S8          -3.6490     0.1410    -1.6740 sy         1 J0S       1.195600
     10 O9          -4.8700    -0.1590    -2.4290 o          1 J0S      -0.546000
     11 O10         -2.3280     0.0960    -2.3100 o          1 J0S      -0.546000
     12 N11         -3.5900    -0.9710    -0.3670 n3         1 J0S      -0.783500
     13 C12         -4.1280    -0.5480     0.9480 c3         1 J0S       0.230800
     14 C13         -5.6720    -0.3930     1.0050 c3         1 J0S      -0.084700
     15 C14         -6.4000    -1.7370     0.7620 c3         1 J0S      -0.085100
     16 C15         -6.1170     0.2490     2.3390 c3         1 J0S      -0.085100
     17 C16         -2.4160    -1.8870    -0.3150 c3         1 J0S       0.207800
     18 C17         -1.0700    -1.2940     0.2310 c3         1 J0S       0.125300
     19 O18         -1.1510    -0.9770     1.6420 oh         1 J0S      -0.655000
     20 C19          0.1610    -2.2120    -0.0440 c3         1 J0S       0.097700
     21 N20          1.3970    -1.5350     0.3740 ns         1 J0S      -0.490900
     22 C21          2.5380    -1.4470    -0.3700 c          1 J0S       0.647100
     23 O22          2.6740    -1.8820    -1.5030 o          1 J0S      -0.531000
     24 O23          3.4850    -0.7990     0.3730 os         1 J0S      -0.458100
     25 C24          4.7520    -0.6030    -0.2970 c5         1 J0S       0.193300
     26 C25          4.6310     0.5950    -1.2800 c5         1 J0S      -0.122400
     27 C26          6.1150     1.0490    -1.4430 c5         1 J0S       0.153300
     28 O27          6.1690     2.4840    -1.2810 os         1 J0S      -0.411100
     29 C28          6.9630     2.8050    -0.2210 c          1 J0S       0.699100
     30 O41          7.2400     3.9350     0.1370 o          1 J0S      -0.533000
     31 N29          7.4030     1.6660     0.3820 ns         1 J0S      -0.544900
     32 C30          6.8650     0.4560    -0.2120 c5         1 J0S       0.078700
     33 C31          5.7350    -0.0200     0.7410 c5         1 J0S      -0.101400
     34 C32          0.0750    -3.6280     0.5930 c3         1 J0S      -0.056100
     35 C33          1.4010    -5.1430    -0.9610 ca         1 J0S      -0.099000
     36 C34          2.5280    -5.9300    -1.2550 ca         1 J0S      -0.106000
     37 C35          3.5540    -6.0720    -0.3060 ca         1 J0S      -0.105000
     38 C36          3.4520    -5.4260     0.9380 ca         1 J0S      -0.106000
     39 C37          2.3240    -4.6400     1.2330 ca         1 J0S      -0.099000
     40 C38          1.2930    -4.4930     0.2840 ca         1 J0S      -0.086300
     41 H1          -3.3780     7.1530     2.0130 h1         1 J0S       0.046700
     42 H2          -2.7230     5.5720     2.4830 h1         1 J0S       0.046700
     43 H3          -2.1830     6.3530     0.9720 h1         1 J0S       0.046700
     44 H4          -1.8790     3.9660     0.8900 ha         1 J0S       0.127500
     45 H5          -1.7190     1.7630    -0.1820 ha         1 J0S       0.133500
     46 H6          -5.8460     2.0890    -1.4790 ha         1 J0S       0.133500
     47 H7          -5.9960     4.3090    -0.3900 ha         1 J0S       0.127500
     48 H8          -3.8690    -1.3010     1.7040 h1         1 J0S       0.044700
     49 H9          -3.6510     0.3820     1.2820 h1         1 J0S       0.044700
     50 H10         -5.9870     0.2890     0.2090 hc         1 J0S       0.079700
     51 H11         -7.4870    -1.5990     0.7860 hc         1 J0S       0.033867
     52 H12         -6.1350    -2.1520    -0.2180 hc         1 J0S       0.033867
     53 H13         -6.1290    -2.4720     1.5300 hc         1 J0S       0.033867
     54 H14         -5.6430     1.2290     2.4730 hc         1 J0S       0.033867
     55 H15         -7.2040     0.3940     2.3570 hc         1 J0S       0.033867
     56 H16         -5.8400    -0.3860     3.1900 hc         1 J0S       0.033867
     57 H17         -2.6770    -2.7550     0.3030 h1         1 J0S       0.067200
     58 H18         -2.2280    -2.2920    -1.3190 h1         1 J0S       0.067200
     59 H19         -0.8760    -0.3710    -0.3280 h1         1 J0S       0.099700
     60 H20         -1.3480    -1.8080     2.1240 ho         1 J0S       0.441000
     61 H21          0.2100    -2.3520    -1.1330 h1         1 J0S       0.098700
     62 H22          1.4290    -1.1070     1.2890 hn         1 J0S       0.329500
     63 H23          5.1220    -1.5320    -0.7570 h1         1 J0S       0.069700
     64 H24          4.1920     0.3010    -2.2390 hc         1 J0S       0.083200
     65 H25          4.0040     1.3920    -0.8640 hc         1 J0S       0.083200
     66 H26          6.5700     0.7510    -2.3980 h1         1 J0S       0.085700
     67 H27          8.0040     1.7370     1.1940 hn         1 J0S       0.349500
     68 H28          7.6050    -0.3150    -0.4720 h1         1 J0S       0.069700
     69 H29          5.2740     0.7980     1.3110 hc         1 J0S       0.070200
     70 H30          6.0840    -0.7710     1.4570 hc         1 J0S       0.070200
     71 H31         -0.0460    -3.5330     1.6790 hc         1 J0S       0.049700
     72 H32         -0.8250    -4.1390     0.2310 hc         1 J0S       0.049700
     73 H34          2.6070    -6.4280    -2.2190 ha         1 J0S       0.112500
     74 H35          4.4270    -6.6800    -0.5340 ha         1 J0S       0.113000
     75 H36          4.2460    -5.5340     1.6730 ha         1 J0S       0.112500
     76 H37          2.2570    -4.1400     2.1960 ha         1 J0S       0.109000
     77 H33          0.6140    -5.0350    -1.7040 ha         1 J0S       0.109000
@<TRIPOS>BOND
     1     1     2 1   
     2     1     3 1   
     3     2    41 1   
     4     2    42 1   
     5     2    43 1   
     6     3     4 ar  
     7     3     8 ar  
     8     4     5 ar  
     9     4    44 1   
    10     5     6 ar  
    11     5    45 1   
    12     6     7 ar  
    13     6     9 1   
    14     7     8 ar  
    15     7    46 1   
    16     8    47 1   
    17     9    10 2   
    18     9    11 2   
    19     9    12 1   
    20    12    13 1   
    21    12    17 1   
    22    13    14 1   
    23    13    48 1   
    24    13    49 1   
    25    14    15 1   
    26    14    16 1   
    27    14    50 1   
    28    15    51 1   
    29    15    52 1   
    30    15    53 1   
    31    16    54 1   
    32    16    55 1   
    33    16    56 1   
    34    17    18 1   
    35    17    57 1   
    36    17    58 1   
    37    18    19 1   
    38    18    20 1   
    39    18    59 1   
    40    19    60 1   
    41    20    21 1   
    42    20    34 1   
    43    20    61 1   
    44    21    22 1   
    45    21    62 1   
    46    22    23 2   
    47    22    24 1   
    48    24    25 1   
    49    25    26 1   
    50    25    33 1   
    51    25    63 1   
    52    26    27 1   
    53    26    64 1   
    54    26    65 1   
    55    27    28 1   
    56    27    32 1   
    57    27    66 1   
    58    28    29 1   
    59    29    30 2   
    60    29    31 1   
    61    31    32 1   
    62    31    67 1   
    63    32    33 1   
    64    32    68 1   
    65    33    69 1   
    66    33    70 1   
    67    34    40 1   
    68    34    71 1   
    69    34    72 1   
    70    35    36 ar  
    71    35    40 ar  
    72    35    77 1   
    73    36    37 ar  
    74    36    73 1   
    75    37    38 ar  
    76    37    74 1   
    77    38    39 ar  
    78    38    75 1   
    79    39    40 ar  
    80    39    76 1   
@<TRIPOS>SUBSTRUCTURE
     1 J0S         1 TEMP              0 ****  ****    0 ROOT
