@<TRIPOS>MOLECULE
J0T
   65    69     1     0     0
SMALL
No Charge or Current Charge


@<TRIPOS>ATOM
      1 C02         -7.4150     1.6450     0.1910 ca         1 J0T      -0.077500
      2 C03         -7.0890     2.4500    -0.9270 ca         1 J0T      -0.124000
      3 C05         -9.1780     3.6800    -0.7000 ca         1 J0T      -0.150000
      4 C06         -9.5150     2.8850     0.4040 ca         1 J0T       0.169000
      5 C08         -6.5200     0.5730     0.6630 cc         1 J0T       0.246500
      6 C12         -5.2760     0.3670     0.1530 cd         1 J0T      -0.181000
      7 C14         -3.5570    -2.4890    -0.3520 c6         1 J0T       0.132300
      8 C15         -3.5190    -1.3980     0.7650 c6         1 J0T       0.069300
      9 C16         -2.3270    -0.4120     0.5450 c6         1 J0T       0.149300
     10 C33          8.5950     0.5750     0.3530 ca         1 J0T      -0.078500
     11 C35         10.8930     1.4160     0.2720 ca         1 J0T       0.169000
     12 C37          9.4540     2.0500     2.1170 ca         1 J0T      -0.087000
     13 C01         -8.6460     1.8750     0.8470 ca         1 J0T      -0.125000
     14 C04         -7.9630     3.4600    -1.3670 ca         1 J0T      -0.087000
     15 C13         -2.1580    -3.1890    -0.3940 c6         1 J0T       0.151300
     16 C17         -0.9960    -1.2230     0.4070 c6         1 J0T       0.249300
     17 C20         -2.0640    -4.3020    -1.4890 c3         1 J0T       0.172600
     18 C25          3.1730    -0.7650    -0.3190 c3         1 J0T       0.167300
     19 C27          4.3080    -1.8120    -0.4100 c3         1 J0T       0.038600
     20 C30          7.5100    -0.2140    -0.2540 cc         1 J0T       0.259500
     21 C31          6.3320    -0.4650     0.3780 cd         1 J0T      -0.194000
     22 C34          9.8540     0.6570    -0.2870 ca         1 J0T      -0.123000
     23 C36         10.6990     2.1120     1.4720 ca         1 J0T      -0.148000
     24 C38          8.4090     1.2910     1.5610 ca         1 J0T      -0.123000
     25 F07        -10.6860     3.0920     1.0460 f          1 J0T      -0.179000
     26 F39         12.0900     1.4770    -0.3530 f          1 J0T      -0.179000
     27 N09         -6.8170    -0.3220     1.6500 nc         1 J0T      -0.347000
     28 N10         -5.7840    -1.1160     1.7940 nd         1 J0T      -0.199800
     29 N11         -4.8280    -0.7090     0.8930 na         1 J0T       0.133800
     30 N28          5.6500    -1.2250    -0.5470 na         1 J0T       0.128800
     31 N29          6.4170    -1.4210    -1.6730 nd         1 J0T      -0.193800
     32 N32          7.5540    -0.7980    -1.4870 nc         1 J0T      -0.346000
     33 O18         -1.1150    -2.2100    -0.6350 os         1 J0T      -0.405000
     34 O21         -0.7930    -4.9840    -1.4950 oh         1 J0T      -0.714000
     35 O22         -2.2420     0.5430     1.6280 oh         1 J0T      -0.706000
     36 O26          3.0870    -0.0220    -1.5450 oh         1 J0T      -0.627000
     37 S23          0.4530    -0.1440     0.0150 ss         1 J0T      -0.348000
     38 H1          -6.1590     2.3010    -1.4700 ha         1 J0T       0.113000
     39 H2          -9.8570     4.4590    -1.0370 ha         1 J0T       0.132000
     40 H3          -4.7040     0.8620    -0.6190 h4         1 J0T       0.177000
     41 H4          -4.3070    -3.2460    -0.0750 h1         1 J0T       0.061700
     42 H5          -3.3400    -1.9110     1.7200 h1         1 J0T       0.105700
     43 H6          -2.4850     0.1170    -0.4070 h1         1 J0T       0.073700
     44 H7           1.5730    -2.1550    -0.8130 h1         1 J0T       0.074200
     45 H8           1.8350    -1.9380     0.9320 h1         1 J0T       0.074200
     46 H9           9.2950     2.5930     3.0470 ha         1 J0T       0.116000
     47 H10         -8.9370     1.2760     1.7050 ha         1 J0T       0.152000
     48 H11         -7.6970     4.0710    -2.2280 ha         1 J0T       0.117000
     49 H12         -1.9710    -3.6680     0.5790 h1         1 J0T       0.055700
     50 H13         -0.7690    -1.7220     1.3610 h2         1 J0T       0.058700
     51 H14         -2.8760    -5.0210    -1.3130 h1         1 J0T       0.036700
     52 H15         -2.2460    -3.8400    -2.4690 h1         1 J0T       0.036700
     53 H16          3.3990    -0.0860     0.5170 h1         1 J0T       0.089700
     54 H17          4.3030    -2.4270     0.4980 h1         1 J0T       0.078700
     55 H18          4.1200    -2.4780    -1.2620 h1         1 J0T       0.078700
     56 H19          5.9430    -0.1930     1.3490 h4         1 J0T       0.167000
     57 H20         10.0350     0.1290    -1.2200 ha         1 J0T       0.153000
     58 H21         11.5100     2.6980     1.8980 ha         1 J0T       0.132000
     59 H22          7.4540     1.2700     2.0790 ha         1 J0T       0.110000
     60 H23         -4.8720    -1.9360    -1.7280 ho         1 J0T       0.515000
     61 H24         -0.8020    -5.6010    -2.2630 ho         1 J0T       0.511000
     62 H25         -1.4600     1.1150     1.4440 ho         1 J0T       0.528000
     63 H26          2.2130     0.4280    -1.5280 ho         1 J0T       0.457000
     64 O19         -3.8910    -1.9050    -1.6330 oh         1 J0T      -0.705000
     65 C24          1.8020    -1.4160    -0.0340 c3         1 J0T       0.010600
@<TRIPOS>BOND
     1     1     2 ar  
     2     1     5 1   
     3     1    13 ar  
     4     2    14 ar  
     5     2    38 1   
     6     3     4 ar  
     7     3    14 ar  
     8     3    39 1   
     9     4    13 ar  
    10     4    25 1   
    11     5     6 2   
    12     5    27 1   
    13     6    29 1   
    14     6    40 1   
    15     7     8 1   
    16     7    15 1   
    17     7    41 1   
    18     7    64 1   
    19     8     9 1   
    20     8    29 1   
    21     8    42 1   
    22     9    16 1   
    23     9    35 1   
    24     9    43 1   
    25    10    20 1   
    26    10    22 ar  
    27    10    24 ar  
    28    11    22 ar  
    29    11    23 ar  
    30    11    26 1   
    31    12    23 ar  
    32    12    24 ar  
    33    12    46 1   
    34    13    47 1   
    35    14    48 1   
    36    15    17 1   
    37    15    33 1   
    38    15    49 1   
    39    16    33 1   
    40    16    37 1   
    41    16    50 1   
    42    17    34 1   
    43    17    51 1   
    44    17    52 1   
    45    18    19 1   
    46    18    36 1   
    47    18    53 1   
    48    18    65 1   
    49    19    30 1   
    50    19    54 1   
    51    19    55 1   
    52    20    21 2   
    53    20    32 1   
    54    21    30 1   
    55    21    56 1   
    56    22    57 1   
    57    23    58 1   
    58    24    59 1   
    59    27    28 2   
    60    28    29 1   
    61    30    31 1   
    62    31    32 2   
    63    34    61 1   
    64    35    62 1   
    65    36    63 1   
    66    37    65 1   
    67    44    65 1   
    68    45    65 1   
    69    60    64 1   
@<TRIPOS>SUBSTRUCTURE
     1 J0T         1 TEMP              0 ****  ****    0 ROOT
