@<TRIPOS>MOLECULE
J0T
   65    69     1     0     0
SMALL
abcg2


@<TRIPOS>ATOM
      1 C02         -6.9760     1.9220     0.3530 ca         1 J0T      -0.077500
      2 C03         -6.8040     2.6880    -0.8000 ca         1 J0T      -0.124000
      3 C05         -8.8390     3.9000    -0.3380 ca         1 J0T      -0.150000
      4 C06         -8.9890     3.1310     0.7990 ca         1 J0T       0.169000
      5 C08         -6.0130     0.8860     0.7150 cc         1 J0T       0.246500
      6 C12         -4.9410     0.3990     0.0060 cd         1 J0T      -0.181000
      7 C14         -3.6600    -2.5430    -0.4000 c6         1 J0T       0.132300
      8 C15         -3.2890    -1.4190     0.5740 c6         1 J0T       0.069300
      9 C16         -2.0660    -0.6390     0.1000 c6         1 J0T       0.149300
     10 C33          8.2770     0.9050     0.5930 ca         1 J0T      -0.078500
     11 C35         10.3480     2.0630     0.3070 ca         1 J0T       0.169000
     12 C37          9.1330     2.3560     2.3220 ca         1 J0T      -0.087000
     13 C01         -8.0870     2.1540     1.1650 ca         1 J0T      -0.125000
     14 C04         -7.7280     3.6650    -1.1370 ca         1 J0T      -0.087000
     15 C13         -2.4230    -3.4100    -0.6110 c6         1 J0T       0.151300
     16 C17         -0.9430    -1.6490    -0.1840 c6         1 J0T       0.249300
     17 C20         -2.6780    -4.5390    -1.5860 c3         1 J0T       0.172600
     18 C25          3.1310    -1.0560    -0.4550 c3         1 J0T       0.167300
     19 C27          4.3020    -1.9890    -0.1440 c3         1 J0T       0.038600
     20 C30          7.2550    -0.0080     0.0900 cc         1 J0T       0.259500
     21 C31          6.1090    -0.4680     0.6940 cd         1 J0T      -0.194000
     22 C34          9.3930     1.2000    -0.1900 ca         1 J0T      -0.123000
     23 C36         10.2480     2.6550     1.5510 ca         1 J0T      -0.148000
     24 C38          8.1560     1.4920     1.8530 ca         1 J0T      -0.123000
     25 F07        -10.0610     3.3370     1.5820 f          1 J0T      -0.179000
     26 F39         11.4220     2.3340    -0.4540 f          1 J0T      -0.179000
     27 N09         -6.0660     0.2130     1.8870 nc         1 J0T      -0.347000
     28 N10         -5.1040    -0.6360     1.9360 nd         1 J0T      -0.199800
     29 N11         -4.4140    -0.5370     0.8100 na         1 J0T       0.133800
     30 N28          5.5640    -1.2880    -0.2160 na         1 J0T       0.128800
     31 N29          6.3000    -1.3350    -1.3130 nd         1 J0T      -0.193800
     32 N32          7.3200    -0.5740    -1.1380 nc         1 J0T      -0.346000
     33 O18         -1.3530    -2.6220    -1.1020 os         1 J0T      -0.405000
     34 O21         -1.5710    -5.4060    -1.5710 oh         1 J0T      -0.714000
     35 O22         -1.7190     0.2530     1.1190 oh         1 J0T      -0.706000
     36 O26          3.2940    -0.3970    -1.6820 oh         1 J0T      -0.627000
     37 S23          0.4630    -0.7480    -0.8690 ss         1 J0T      -0.348000
     38 H1          -5.9470     2.5320    -1.4420 ha         1 J0T       0.113000
     39 H2          -9.5680     4.6570    -0.5950 ha         1 J0T       0.132000
     40 H3          -4.5390     0.6410    -0.9620 h4         1 J0T       0.177000
     41 H4          -4.4320    -3.1590     0.0740 h1         1 J0T       0.061700
     42 H5          -3.0580    -1.8650     1.5450 h1         1 J0T       0.105700
     43 H6          -2.3000    -0.1170    -0.8400 h1         1 J0T       0.073700
     44 H7           1.8590    -2.7080    -1.0540 h1         1 J0T       0.074200
     45 H8           1.6610    -2.2000     0.6300 h1         1 J0T       0.074200
     46 H9           9.0270     2.8040     3.3000 ha         1 J0T       0.116000
     47 H10         -8.2480     1.5750     2.0650 ha         1 J0T       0.152000
     48 H11         -7.5850     4.2520    -2.0340 ha         1 J0T       0.117000
     49 H12         -2.1530    -3.8450     0.3650 h1         1 J0T       0.055700
     50 H13         -0.6320    -2.1090     0.7660 h2         1 J0T       0.058700
     51 H14         -3.5990    -5.0480    -1.2720 h1         1 J0T       0.036700
     52 H15         -2.8620    -4.1280    -2.5840 h1         1 J0T       0.036700
     53 H16          3.0990    -0.2690     0.3040 h1         1 J0T       0.089700
     54 H17          4.1970    -2.4140     0.8540 h1         1 J0T       0.078700
     55 H18          4.3470    -2.8120    -0.8570 h1         1 J0T       0.078700
     56 H19          5.6630    -0.2920     1.6590 h4         1 J0T       0.167000
     57 H20          9.5180     0.7610    -1.1710 ha         1 J0T       0.153000
     58 H21         11.0170     3.3260     1.9090 ha         1 J0T       0.132000
     59 H22          7.2990     1.2780     2.4790 ha         1 J0T       0.110000
     60 H23         -5.0460    -2.1510    -1.7100 ho         1 J0T       0.515000
     61 H24         -1.7440    -6.1180    -2.1930 ho         1 J0T       0.511000
     62 H25         -0.9220     0.7260     0.8510 ho         1 J0T       0.528000
     63 H26          3.3260    -1.0490    -2.3920 ho         1 J0T       0.457000
     64 O19         -4.0990    -2.0140    -1.6250 oh         1 J0T      -0.705000
     65 C24          1.8300    -1.8430    -0.3870 c3         1 J0T       0.010600
@<TRIPOS>BOND
     1     1     2 ar  
     2     1     5 1   
     3     1    13 ar  
     4     2    14 ar  
     5     2    38 1   
     6     3     4 ar  
     7     3    14 ar  
     8     3    39 1   
     9     4    13 ar  
    10     4    25 1   
    11     5     6 2   
    12     5    27 1   
    13     6    29 1   
    14     6    40 1   
    15     7     8 1   
    16     7    15 1   
    17     7    41 1   
    18     7    64 1   
    19     8     9 1   
    20     8    29 1   
    21     8    42 1   
    22     9    16 1   
    23     9    35 1   
    24     9    43 1   
    25    10    20 1   
    26    10    22 ar  
    27    10    24 ar  
    28    11    22 ar  
    29    11    23 ar  
    30    11    26 1   
    31    12    23 ar  
    32    12    24 ar  
    33    12    46 1   
    34    13    47 1   
    35    14    48 1   
    36    15    17 1   
    37    15    33 1   
    38    15    49 1   
    39    16    33 1   
    40    16    37 1   
    41    16    50 1   
    42    17    34 1   
    43    17    51 1   
    44    17    52 1   
    45    18    19 1   
    46    18    36 1   
    47    18    53 1   
    48    18    65 1   
    49    19    30 1   
    50    19    54 1   
    51    19    55 1   
    52    20    21 2   
    53    20    32 1   
    54    21    30 1   
    55    21    56 1   
    56    22    57 1   
    57    23    58 1   
    58    24    59 1   
    59    27    28 2   
    60    28    29 1   
    61    30    31 1   
    62    31    32 2   
    63    34    61 1   
    64    35    62 1   
    65    36    63 1   
    66    37    65 1   
    67    44    65 1   
    68    45    65 1   
    69    60    64 1   
@<TRIPOS>SUBSTRUCTURE
     1 J0T         1 TEMP              0 ****  ****    0 ROOT
