@<TRIPOS>MOLECULE
J0U
   62    64     1     0     0
SMALL
bcc


@<TRIPOS>ATOM
      1 O2          29.2360   -49.3880   -14.3030 os         1 J0U      -0.282900
      2 C9          30.2020   -51.9160    -5.8570 c3         1 J0U      -0.054900
      3 O1          31.0280   -53.4380   -12.7740 oh         1 J0U      -0.493100
      4 C8          29.8430   -50.7540    -8.0700 c3         1 J0U      -0.054900
      5 C7          30.4720   -51.9000    -7.3330 c2         1 J0U      -0.118400
      6 C5          31.5910   -52.9080    -9.3640 c3         1 J0U      -0.035200
      7 C4          32.8470   -52.0860    -9.6970 c3         1 J0U      -0.026500
      8 C2          34.0530   -52.5370    -8.9060 c2         1 J0U      -0.106400
      9 C1          34.6900   -51.6920    -8.0980 c2         1 J0U      -0.218000
     10 C10         33.1470   -52.0900   -11.2100 c3         1 J0U       0.002900
     11 C11         32.0850   -51.4100   -12.0350 ca         1 J0U      -0.271300
     12 C12         31.1130   -52.1010   -12.7570 ca         1 J0U       0.247100
     13 C13         30.1550   -51.4420   -13.5310 ca         1 J0U      -0.327000
     14 C14         30.1370   -50.0620   -13.5880 ca         1 J0U       0.268100
     15 C15         28.2260   -50.1020   -14.9910 c3         1 J0U       0.121700
     16 C16         31.0810   -49.3010   -12.8500 ca         1 J0U      -0.341600
     17 C17         32.0390   -50.0120   -12.1010 ca         1 J0U       0.268100
     18 O3          32.9900   -49.3950   -11.3920 os         1 J0U      -0.308900
     19 C18         33.2270   -48.0030   -11.5910 c6         1 J0U       0.232400
     20 C19         34.1460   -47.5240   -10.5080 ca         1 J0U      -0.168300
     21 C20         35.3490   -46.9150   -10.8470 ca         1 J0U      -0.038000
     22 C21         36.2330   -46.4240    -9.9030 ca         1 J0U      -0.204000
     23 C22         35.9160   -46.5550    -8.5540 ca         1 J0U       0.195100
     24 O4          36.7920   -46.0770    -7.6530 oh         1 J0U      -0.488100
     25 C23         34.7230   -47.1670    -8.1790 ca         1 J0U      -0.334000
     26 C24         33.8430   -47.6430    -9.1460 ca         1 J0U       0.212100
     27 O5          32.6810   -48.2280    -8.7990 oh         1 J0U      -0.483100
     28 C25         31.9170   -47.2480   -11.6870 c6         1 J0U      -0.219400
     29 C26         31.0350   -47.8380   -12.7620 c          1 J0U       0.604700
     30 O6          30.3300   -47.1210   -13.4440 o          1 J0U      -0.514100
     31 H1          30.6880   -52.7560    -5.3600 hc         1 J0U       0.037867
     32 H2          30.5510   -50.9950    -5.3830 hc         1 J0U       0.037867
     33 H3          29.1290   -51.9780    -5.6560 hc         1 J0U       0.037867
     34 H4          31.7040   -53.8480   -12.2230 ho         1 J0U       0.436000
     35 H5          30.2430   -49.8030    -7.7090 hc         1 J0U       0.037867
     36 H6          30.0020   -50.7900    -9.1460 hc         1 J0U       0.037867
     37 H7          28.7650   -50.7240    -7.8890 hc         1 J0U       0.037867
     38 H8          31.6520   -53.6080    -7.2730 ha         1 J0U       0.117000
     39 H9          30.7660   -52.5390    -9.9770 hc         1 J0U       0.042200
     40 H10         31.7430   -53.9520    -9.6550 hc         1 J0U       0.042200
     41 H11         32.6410   -51.0530    -9.4060 hc         1 J0U       0.072700
     42 H12         35.4010   -54.1620    -8.4860 hc         1 J0U       0.037367
     43 H13         33.7330   -54.6620    -8.7510 hc         1 J0U       0.037367
     44 H14         34.7270   -54.1950   -10.1130 hc         1 J0U       0.037367
     45 H15         35.5630   -51.9920    -7.5310 ha         1 J0U       0.110500
     46 H16         34.3580   -50.6670    -7.9740 ha         1 J0U       0.110500
     47 H17         33.3120   -53.1180   -11.5490 hc         1 J0U       0.045200
     48 H18         34.1050   -51.5940   -11.3790 hc         1 J0U       0.045200
     49 H19         29.4390   -52.0450   -14.0720 ha         1 J0U       0.156000
     50 H20         27.6040   -49.3530   -15.4760 h1         1 J0U       0.045700
     51 H21         28.6410   -50.7640   -15.7540 h1         1 J0U       0.045700
     52 H22         27.6070   -50.6900   -14.3090 h1         1 J0U       0.045700
     53 H23         33.7510   -47.8920   -12.5500 h1         1 J0U       0.051700
     54 H24         35.6030   -46.8190   -11.8960 ha         1 J0U       0.137000
     55 H25         37.1600   -45.9530   -10.2030 ha         1 J0U       0.154000
     56 H26         36.4700   -46.2140    -6.7540 ho         1 J0U       0.429000
     57 H27         34.4720   -47.2740    -7.1280 ha         1 J0U       0.133000
     58 H28         32.5850   -48.2550    -7.8400 ho         1 J0U       0.428000
     59 H29         32.1170   -46.2000   -11.9140 hc         1 J0U       0.085700
     60 H30         31.3690   -47.2810   -10.7410 hc         1 J0U       0.085700
     61 C6          31.2270   -52.8380    -7.9110 c2         1 J0U      -0.164200
     62 C3          34.5050   -53.9580    -9.0700 c3         1 J0U      -0.056900
@<TRIPOS>BOND
     1     1    14 1   
     2     1    15 1   
     3     2     5 1   
     4     2    31 1   
     5     2    32 1   
     6     2    33 1   
     7     3    12 1   
     8     3    34 1   
     9     4     5 1   
    10     4    35 1   
    11     4    36 1   
    12     4    37 1   
    13     5    61 2   
    14     6     7 1   
    15     6    39 1   
    16     6    40 1   
    17     6    61 1   
    18     7     8 1   
    19     7    10 1   
    20     7    41 1   
    21     8     9 2   
    22     8    62 1   
    23     9    45 1   
    24     9    46 1   
    25    10    11 1   
    26    10    47 1   
    27    10    48 1   
    28    11    12 ar  
    29    11    17 ar  
    30    12    13 ar  
    31    13    14 ar  
    32    13    49 1   
    33    14    16 ar  
    34    15    50 1   
    35    15    51 1   
    36    15    52 1   
    37    16    17 ar  
    38    16    29 1   
    39    17    18 1   
    40    18    19 1   
    41    19    20 1   
    42    19    28 1   
    43    19    53 1   
    44    20    21 ar  
    45    20    26 ar  
    46    21    22 ar  
    47    21    54 1   
    48    22    23 ar  
    49    22    55 1   
    50    23    24 1   
    51    23    25 ar  
    52    24    56 1   
    53    25    26 ar  
    54    25    57 1   
    55    26    27 1   
    56    27    58 1   
    57    28    29 1   
    58    28    59 1   
    59    28    60 1   
    60    29    30 2   
    61    38    61 1   
    62    42    62 1   
    63    43    62 1   
    64    44    62 1   
@<TRIPOS>SUBSTRUCTURE
     1 J0U         1 TEMP              0 ****  ****    0 ROOT
