@<TRIPOS>MOLECULE
J0U
   62    64     1     0     0
SMALL
No Charge or Current Charge


@<TRIPOS>ATOM
      1 O2          29.1200   -49.4060   -14.2460 os         1 J0U      -0.306100
      2 C9          30.1630   -51.7890    -5.8650 c3         1 J0U      -0.054900
      3 O1          31.1130   -53.5370   -12.8850 oh         1 J0U      -0.532100
      4 C8          29.8890   -50.6360    -8.0950 c3         1 J0U      -0.054900
      5 C7          30.4820   -51.8230    -7.3480 c2         1 J0U      -0.118400
      6 C5          31.5830   -52.9610    -9.3700 c3         1 J0U      -0.035200
      7 C4          32.8780   -52.1910    -9.7440 c3         1 J0U      -0.026500
      8 C2          34.0980   -52.6210    -8.9240 c2         1 J0U      -0.106400
      9 C1          34.7910   -51.7590    -8.1630 c2         1 J0U      -0.318000
     10 C10         33.1710   -52.2040   -11.2710 c3         1 J0U       0.002900
     11 C11         32.0960   -51.4780   -12.1020 ca         1 J0U      -0.271300
     12 C12         31.1330   -52.1780   -12.8510 ca         1 J0U       0.247100
     13 C13         30.1570   -51.4940   -13.5730 ca         1 J0U      -0.309000
     14 C14         30.1100   -50.0890   -13.5670 ca         1 J0U       0.268100
     15 C15         28.1000   -50.0690   -15.0120 c3         1 J0U       0.144900
     16 C16         31.0710   -49.3690   -12.8330 ca         1 J0U      -0.341600
     17 C17         32.0600   -50.0680   -12.1110 ca         1 J0U       0.268100
     18 O3          33.0090   -49.3900   -11.3750 os         1 J0U      -0.332100
     19 C18         33.1970   -47.9780   -11.5510 c6         1 J0U       0.255600
     20 C19         34.1340   -47.4510   -10.4510 ca         1 J0U      -0.168300
     21 C20         35.3310   -46.8160   -10.8420 ca         1 J0U      -0.020000
     22 C21         36.2240   -46.3240    -9.8760 ca         1 J0U      -0.186000
     23 C22         35.9310   -46.4640    -8.5160 ca         1 J0U       0.195100
     24 O4          36.7980   -45.9860    -7.5840 oh         1 J0U      -0.527100
     25 C23         34.7490   -47.0930    -8.1110 ca         1 J0U      -0.316000
     26 C24         33.8530   -47.5860    -9.0700 ca         1 J0U       0.212100
     27 O5          32.7170   -48.1910    -8.6290 oh         1 J0U      -0.522100
     28 C25         31.8450   -47.2660   -11.6170 c6         1 J0U      -0.219400
     29 C26         31.0680   -47.8710   -12.7670 c          1 J0U       0.604700
     30 O6          30.5470   -47.1500   -13.6080 o          1 J0U      -0.514100
     31 H1          30.5920   -52.6490    -5.3360 hc         1 J0U       0.037867
     32 H2          30.5620   -50.8820    -5.3960 hc         1 J0U       0.037867
     33 H3          29.0790   -51.8060    -5.6940 hc         1 J0U       0.037867
     34 H4          31.8460   -53.8560   -12.3230 ho         1 J0U       0.475000
     35 H5          30.2150   -49.6900    -7.6470 hc         1 J0U       0.037867
     36 H6          30.1800   -50.6040    -9.1500 hc         1 J0U       0.037867
     37 H7          28.7930   -50.6590    -8.0580 hc         1 J0U       0.037867
     38 H8          31.6050   -53.6100    -7.2780 ha         1 J0U       0.167000
     39 H9          30.7560   -52.6060    -9.9950 hc         1 J0U       0.042200
     40 H10         31.6910   -54.0240    -9.6190 hc         1 J0U       0.042200
     41 H11         32.6740   -51.1440    -9.4890 hc         1 J0U       0.072700
     42 H12         35.3930   -54.3070    -8.4580 hc         1 J0U       0.037367
     43 H13         33.7000   -54.7480    -8.6550 hc         1 J0U       0.037367
     44 H14         34.6950   -54.3750   -10.0740 hc         1 J0U       0.037367
     45 H15         35.6610   -52.0720    -7.5860 ha         1 J0U       0.160500
     46 H16         34.5140   -50.7070    -8.0910 ha         1 J0U       0.160500
     47 H17         33.3160   -53.2370   -11.6060 hc         1 J0U       0.045200
     48 H18         34.1420   -51.7210   -11.4380 hc         1 J0U       0.045200
     49 H19         29.4320   -52.0790   -14.1270 ha         1 J0U       0.138000
     50 H20         27.4270   -49.3310   -15.4660 h1         1 J0U       0.045700
     51 H21         28.5430   -50.6650   -15.8200 h1         1 J0U       0.045700
     52 H22         27.4990   -50.7290   -14.3740 h1         1 J0U       0.045700
     53 H23         33.6920   -47.8390   -12.5230 h1         1 J0U       0.051700
     54 H24         35.5750   -46.7010   -11.8970 ha         1 J0U       0.119000
     55 H25         37.1440   -45.8350   -10.1850 ha         1 J0U       0.136000
     56 H26         36.4230   -46.1750    -6.6990 ho         1 J0U       0.468000
     57 H27         34.5270   -47.1990    -7.0520 ha         1 J0U       0.115000
     58 H28         32.7270   -48.1690    -7.6510 ho         1 J0U       0.467000
     59 H29         31.9320   -46.1780   -11.7240 hc         1 J0U       0.085700
     60 H30         31.3030   -47.5170   -10.6980 hc         1 J0U       0.085700
     61 C6          31.2170   -52.8060    -7.9050 c2         1 J0U      -0.214200
     62 C3          34.4880   -54.0890    -9.0370 c3         1 J0U      -0.056900
@<TRIPOS>BOND
     1     1    14 1   
     2     1    15 1   
     3     2     5 1   
     4     2    31 1   
     5     2    32 1   
     6     2    33 1   
     7     3    12 1   
     8     3    34 1   
     9     4     5 1   
    10     4    35 1   
    11     4    36 1   
    12     4    37 1   
    13     5    61 2   
    14     6     7 1   
    15     6    39 1   
    16     6    40 1   
    17     6    61 1   
    18     7     8 1   
    19     7    10 1   
    20     7    41 1   
    21     8     9 2   
    22     8    62 1   
    23     9    45 1   
    24     9    46 1   
    25    10    11 1   
    26    10    47 1   
    27    10    48 1   
    28    11    12 ar  
    29    11    17 ar  
    30    12    13 ar  
    31    13    14 ar  
    32    13    49 1   
    33    14    16 ar  
    34    15    50 1   
    35    15    51 1   
    36    15    52 1   
    37    16    17 ar  
    38    16    29 1   
    39    17    18 1   
    40    18    19 1   
    41    19    20 1   
    42    19    28 1   
    43    19    53 1   
    44    20    21 ar  
    45    20    26 ar  
    46    21    22 ar  
    47    21    54 1   
    48    22    23 ar  
    49    22    55 1   
    50    23    24 1   
    51    23    25 ar  
    52    24    56 1   
    53    25    26 ar  
    54    25    57 1   
    55    26    27 1   
    56    27    58 1   
    57    28    29 1   
    58    28    59 1   
    59    28    60 1   
    60    29    30 2   
    61    38    61 1   
    62    42    62 1   
    63    43    62 1   
    64    44    62 1   
@<TRIPOS>SUBSTRUCTURE
     1 J0U         1 TEMP              0 ****  ****    0 ROOT
