@<TRIPOS>MOLECULE
J0V
   43    46     1     0     0
SMALL
No Charge or Current Charge


@<TRIPOS>ATOM
      1 C13          7.8710    55.5040    27.2040 ca         1 J0V      -0.095000
      2 C15          7.3430    57.1550    28.9230 ca         1 J0V      -0.086300
      3 C17          9.1390    58.0400    30.5310 c6         1 J0V      -0.036100
      4 C20          6.2760    58.0960    29.5550 c6         1 J0V       0.003300
      5 C21          4.9380    57.3340    29.8270 c3         1 J0V      -0.081100
      6 C22          5.9510    59.2390    28.5410 c3         1 J0V      -0.081100
      7 C02         11.9800    53.4200    26.3790 cc         1 J0V      -0.024300
      8 C03         10.9210    53.1150    25.5450 cd         1 J0V       0.023900
      9 C05         10.1340    54.4990    27.0090 cd         1 J0V       0.212500
     10 C06         11.4340    54.3240    27.3220 cc         1 J0V      -0.266600
     11 C07         12.0440    55.0260    28.4590 c          1 J0V       0.528700
     12 C09         11.0500    55.9350    29.3180 c          1 J0V       0.478700
     13 C11          9.6140    56.1660    28.7980 ca         1 J0V      -0.159600
     14 C12          9.1850    55.3960    27.6810 ca         1 J0V      -0.075500
     15 C14          6.9630    56.3620    27.8220 ca         1 J0V      -0.089000
     16 C16          8.6910    57.0930    29.3930 ca         1 J0V      -0.009300
     17 C18          8.1890    59.2130    30.8210 c6         1 J0V      -0.074400
     18 C19          6.7530    58.6920    30.9090 c6         1 J0V      -0.068400
     19 O04          9.7570    53.7710    25.9100 os         1 J0V      -0.156000
     20 O08         13.2350    54.9140    28.7460 o          1 J0V      -0.493100
     21 O10         11.4410    56.3800    30.3970 o          1 J0V      -0.498100
     22 O24         11.9330    52.5820    23.2190 o          1 J0V      -0.678867
     23 O25          9.5060    52.0680    23.5890 o          1 J0V      -0.678867
     24 O26         11.3180    50.7100    24.6650 o          1 J0V      -0.678867
     25 S23         10.8930    51.9910    24.0780 s6         1 J0V       1.206700
     26 H1           7.5420    54.9190    26.3470 ha         1 J0V       0.147000
     27 H2           9.2670    57.4530    31.4520 hc         1 J0V       0.064200
     28 H3          10.1180    58.4750    30.2940 hc         1 J0V       0.064200
     29 H4           5.1100    56.4400    30.4390 hc         1 J0V       0.033700
     30 H5           4.2230    57.9670    30.3680 hc         1 J0V       0.033700
     31 H6           4.4370    57.0120    28.9080 hc         1 J0V       0.033700
     32 H7           5.2430    59.9620    28.9630 hc         1 J0V       0.033700
     33 H8           6.8530    59.7890    28.2480 hc         1 J0V       0.033700
     34 H9           5.5050    58.8470    27.6200 hc         1 J0V       0.033700
     35 H10         14.0970    53.7910    26.2110 hc         1 J0V       0.052367
     36 H11         13.6740    52.4560    27.2990 hc         1 J0V       0.052367
     37 H12         13.5920    52.2310    25.5470 hc         1 J0V       0.052367
     38 H13          5.9570    56.4180    27.4170 ha         1 J0V       0.110000
     39 H14          8.4740    59.6960    31.7660 hc         1 J0V       0.040200
     40 H15          8.2810    59.9800    30.0410 hc         1 J0V       0.040200
     41 H16          6.0800    59.4980    31.2350 hc         1 J0V       0.038700
     42 H17          6.7120    57.9220    31.6920 hc         1 J0V       0.038700
     43 C01         13.4120    52.9470    26.3550 c3         1 J0V      -0.024800
@<TRIPOS>BOND
     1     1    14 ar  
     2     1    15 ar  
     3     1    26 1   
     4     2     4 1   
     5     2    15 ar  
     6     2    16 ar  
     7     3    16 1   
     8     3    17 1   
     9     3    27 1   
    10     3    28 1   
    11     4     5 1   
    12     4     6 1   
    13     4    18 1   
    14     5    29 1   
    15     5    30 1   
    16     5    31 1   
    17     6    32 1   
    18     6    33 1   
    19     6    34 1   
    20     7     8 2   
    21     7    10 1   
    22     7    43 1   
    23     8    19 1   
    24     8    25 1   
    25     9    10 2   
    26     9    14 1   
    27     9    19 1   
    28    10    11 1   
    29    11    12 1   
    30    11    20 2   
    31    12    13 1   
    32    12    21 2   
    33    13    14 ar  
    34    13    16 ar  
    35    15    38 1   
    36    17    18 1   
    37    17    39 1   
    38    17    40 1   
    39    18    41 1   
    40    18    42 1   
    41    22    25 1   
    42    23    25 1   
    43    24    25 1   
    44    35    43 1   
    45    36    43 1   
    46    37    43 1   
@<TRIPOS>SUBSTRUCTURE
     1 J0V         1 TEMP              0 ****  ****    0 ROOT
