@<TRIPOS>MOLECULE
J0V
   43    46     1     0     0
SMALL
abcg2


@<TRIPOS>ATOM
      1 C13          7.8630    55.4970    27.2070 ca         1 J0V      -0.095000
      2 C15          7.3640    57.1420    28.9270 ca         1 J0V      -0.086300
      3 C17          9.1460    57.9730    30.5130 c6         1 J0V      -0.036100
      4 C20          6.3050    58.0610    29.5330 c6         1 J0V       0.003300
      5 C21          5.0320    57.2670    29.8490 c3         1 J0V      -0.081100
      6 C22          5.9630    59.1650    28.5210 c3         1 J0V      -0.081100
      7 C02         12.0150    53.4950    26.3860 cc         1 J0V      -0.024300
      8 C03         10.9750    53.1690    25.5780 cd         1 J0V       0.023900
      9 C05         10.1260    54.5310    27.0420 cd         1 J0V       0.212500
     10 C06         11.4470    54.3920    27.3500 cc         1 J0V      -0.266600
     11 C07         11.9800    55.1040    28.4770 c          1 J0V       0.528700
     12 C09         10.9420    55.9030    29.3190 c          1 J0V       0.478700
     13 C11          9.5730    56.1450    28.7940 ca         1 J0V      -0.159600
     14 C12          9.1580    55.3860    27.6820 ca         1 J0V      -0.075500
     15 C14          6.9880    56.3560    27.8390 ca         1 J0V      -0.089000
     16 C16          8.6880    57.0610    29.4000 ca         1 J0V      -0.009300
     17 C18          8.2300    59.1650    30.7230 c6         1 J0V      -0.074400
     18 C19          6.7980    58.6920    30.8380 c6         1 J0V      -0.068400
     19 O04          9.8280    53.7940    25.9810 os         1 J0V      -0.156000
     20 O08         13.1350    55.1090    28.8330 o          1 J0V      -0.493100
     21 O10         11.3230    56.2610    30.4070 o          1 J0V      -0.498100
     22 O24         12.1100    52.1200    23.5240 o          1 J0V      -0.678867
     23 O25          9.7010    52.6610    23.4130 o          1 J0V      -0.678867
     24 O26         10.4790    50.7580    24.7600 o          1 J0V      -0.678867
     25 S23         10.7990    52.0680    24.1830 s6         1 J0V       1.206700
     26 H1           7.5310    54.9210    26.3530 ha         1 J0V       0.147000
     27 H2           9.2030    57.4020    31.4440 hc         1 J0V       0.064200
     28 H3          10.1580    58.3250    30.3150 hc         1 J0V       0.064200
     29 H4           5.2440    56.4340    30.5210 hc         1 J0V       0.033700
     30 H5           4.3100    57.9190    30.3450 hc         1 J0V       0.033700
     31 H6           4.5480    56.8700    28.9570 hc         1 J0V       0.033700
     32 H7           5.1890    59.8170    28.9300 hc         1 J0V       0.033700
     33 H8           6.8300    59.7820    28.2800 hc         1 J0V       0.033700
     34 H9           5.5860    58.7500    27.5860 hc         1 J0V       0.033700
     35 H10         14.0920    53.8920    26.1150 hc         1 J0V       0.052367
     36 H11         13.7440    52.6330    27.2850 hc         1 J0V       0.052367
     37 H12         13.5840    52.2990    25.5600 hc         1 J0V       0.052367
     38 H13          5.9770    56.4220    27.4570 ha         1 J0V       0.110000
     39 H14          8.5380    59.6910    31.6280 hc         1 J0V       0.040200
     40 H15          8.3400    59.8770    29.9000 hc         1 J0V       0.040200
     41 H16          6.1260    59.5090    31.1120 hc         1 J0V       0.038700
     42 H17          6.7340    57.9560    31.6470 hc         1 J0V       0.038700
     43 C01         13.4330    53.0510    26.3280 c3         1 J0V      -0.024800
@<TRIPOS>BOND
     1     1    14 ar  
     2     1    15 ar  
     3     1    26 1   
     4     2     4 1   
     5     2    15 ar  
     6     2    16 ar  
     7     3    16 1   
     8     3    17 1   
     9     3    27 1   
    10     3    28 1   
    11     4     5 1   
    12     4     6 1   
    13     4    18 1   
    14     5    29 1   
    15     5    30 1   
    16     5    31 1   
    17     6    32 1   
    18     6    33 1   
    19     6    34 1   
    20     7     8 2   
    21     7    10 1   
    22     7    43 1   
    23     8    19 1   
    24     8    25 1   
    25     9    10 2   
    26     9    14 1   
    27     9    19 1   
    28    10    11 1   
    29    11    12 1   
    30    11    20 2   
    31    12    13 1   
    32    12    21 2   
    33    13    14 ar  
    34    13    16 ar  
    35    15    38 1   
    36    17    18 1   
    37    17    39 1   
    38    17    40 1   
    39    18    41 1   
    40    18    42 1   
    41    22    25 1   
    42    23    25 1   
    43    24    25 1   
    44    35    43 1   
    45    36    43 1   
    46    37    43 1   
@<TRIPOS>SUBSTRUCTURE
     1 J0V         1 TEMP              0 ****  ****    0 ROOT
