@<TRIPOS>MOLECULE
J0W
   53    55     1     0     0
SMALL
No Charge or Current Charge


@<TRIPOS>ATOM
      1 C1          -0.8370     5.2270     0.5020 c3         1 J0W      -0.085600
      2 C2          -1.5000     4.0040    -0.1710 c3         1 J0W      -0.058700
      3 C3          -0.8830     3.7380    -1.5660 c3         1 J0W      -0.085600
      4 C4          -1.4210     2.7560     0.7530 c3         1 J0W       0.184800
      5 N5          -2.0560     1.5180     0.2140 n3         1 J0W      -0.740600
      6 C6          -3.5370     1.5890     0.1230 c6         1 J0W       0.183800
      7 C7          -4.0870     0.4700    -0.7800 c6         1 J0W      -0.033100
      8 C8          -3.4920    -0.8990    -0.4660 ca         1 J0W      -0.030300
      9 C9          -4.1360    -2.0540    -0.9500 ca         1 J0W      -0.155000
     10 C10         -3.6080    -3.3250    -0.6870 ca         1 J0W       0.131100
     11 C11         -2.4310    -3.4520     0.0600 ca         1 J0W      -0.207000
     12 C12         -1.7790    -2.3040     0.5430 ca         1 J0W      -0.052000
     13 C13         -2.2970    -1.0140     0.2820 ca         1 J0W      -0.094300
     14 C14         -1.5640     0.2380     0.8390 c6         1 J0W       0.320800
     15 C15         -1.8340     0.2290     2.3840 c3         1 J0W      -0.112100
     16 C16         -0.0490     0.0860     0.5020 ca         1 J0W      -0.119300
     17 C17          0.3300     0.0200    -0.8560 ca         1 J0W      -0.096500
     18 C18          1.6790    -0.1140    -1.2270 ca         1 J0W      -0.132000
     19 C19          2.6870    -0.1840    -0.2490 ca         1 J0W       0.008200
     20 C20          2.3190    -0.1170     1.1080 ca         1 J0W      -0.132000
     21 C21          0.9700     0.0180     1.4830 ca         1 J0W      -0.096500
     22 C22          4.1100    -0.3260    -0.6730 ce         1 J0W      -0.242200
     23 C23          5.2410    -0.4160     0.0950 cf         1 J0W      -0.211200
     24 C24          6.6350    -0.5570    -0.4250 c          1 J0W       0.695200
     25 O25          6.8160    -0.5990    -1.6330 o          1 J0W      -0.723000
     26 O26          7.5380    -0.6250     0.3940 o          1 J0W      -0.723000
     27 O27         -4.2420    -4.4340    -1.1590 oh         1 J0W      -0.543100
     28 H11C        -0.9380     6.1190    -0.1280 hc         1 J0W       0.034033
     29 H12C        -1.3090     5.4410     1.4680 hc         1 J0W       0.034033
     30 H13C         0.2310     5.0480     0.6740 hc         1 J0W       0.034033
     31 H2          -2.5530     4.2650    -0.3190 hc         1 J0W       0.030700
     32 H31C         0.1710     3.4490    -1.4770 hc         1 J0W       0.034033
     33 H32C        -1.4170     2.9310    -2.0820 hc         1 J0W       0.034033
     34 H33C        -0.9430     4.6350    -2.1940 hc         1 J0W       0.034033
     35 H41C        -0.3560     2.5770     0.9520 h1         1 J0W       0.035200
     36 H42C        -1.8790     3.0130     1.7180 h1         1 J0W       0.035200
     37 H61C        -3.9940     1.5120     1.1200 h1         1 J0W       0.026700
     38 H62C        -3.8670     2.5470    -0.3000 h1         1 J0W       0.026700
     39 H71C        -5.1810     0.4390    -0.6920 hc         1 J0W       0.051700
     40 H72C        -3.8670     0.7170    -1.8270 hc         1 J0W       0.051700
     41 H9          -5.0500    -1.9640    -1.5320 ha         1 J0W       0.118000
     42 H11         -2.0130    -4.4340     0.2720 ha         1 J0W       0.110000
     43 H27         -3.7300    -5.2230    -0.8790 ho         1 J0W       0.460000
     44 H12         -0.8660    -2.4200     1.1230 ha         1 J0W       0.123000
     45 H151        -2.9050     0.2820     2.6080 hc         1 J0W       0.036700
     46 H152        -1.4660    -0.6920     2.8500 hc         1 J0W       0.036700
     47 H153        -1.3500     1.0670     2.8980 hc         1 J0W       0.036700
     48 H17         -0.4300     0.0760    -1.6320 ha         1 J0W       0.102500
     49 H21          0.7410     0.0690     2.5430 ha         1 J0W       0.102500
     50 H18          1.9370    -0.1610    -2.2820 ha         1 J0W       0.114000
     51 H20          3.0730    -0.1660     1.8880 ha         1 J0W       0.114000
     52 H22          4.2400    -0.3600    -1.7570 ha         1 J0W       0.191000
     53 H23          5.1580    -0.3870     1.1780 ha         1 J0W       0.142000
@<TRIPOS>BOND
     1     1     2 1   
     2     1    28 1   
     3     1    29 1   
     4     1    30 1   
     5     2     3 1   
     6     2     4 1   
     7     2    31 1   
     8     3    32 1   
     9     3    33 1   
    10     3    34 1   
    11     4     5 1   
    12     4    35 1   
    13     4    36 1   
    14     5     6 1   
    15     5    14 1   
    16     6     7 1   
    17     6    37 1   
    18     6    38 1   
    19     7     8 1   
    20     7    39 1   
    21     7    40 1   
    22     8     9 ar  
    23     8    13 ar  
    24     9    10 ar  
    25     9    41 1   
    26    10    11 ar  
    27    10    27 1   
    28    11    12 ar  
    29    11    42 1   
    30    12    13 ar  
    31    12    44 1   
    32    13    14 1   
    33    14    15 1   
    34    14    16 1   
    35    15    45 1   
    36    15    46 1   
    37    15    47 1   
    38    16    17 ar  
    39    16    21 ar  
    40    17    18 ar  
    41    17    48 1   
    42    18    19 ar  
    43    18    50 1   
    44    19    20 ar  
    45    19    22 1   
    46    20    21 ar  
    47    20    51 1   
    48    21    49 1   
    49    22    23 2   
    50    22    52 1   
    51    23    24 1   
    52    23    53 1   
    53    24    25 1   
    54    24    26 1   
    55    27    43 1   
@<TRIPOS>SUBSTRUCTURE
     1 J0W         1 TEMP              0 ****  ****    0 ROOT
