@<TRIPOS>MOLECULE
J0W
   53    55     1     0     0
SMALL
bcc


@<TRIPOS>ATOM
      1 C1          -0.8070     5.0780     0.4760 c3         1 J0W      -0.085600
      2 C2          -1.4720     3.8770    -0.1910 c3         1 J0W      -0.058700
      3 C3          -0.7730     3.5120    -1.4930 c3         1 J0W      -0.085600
      4 C4          -1.4920     2.7090     0.7970 c3         1 J0W       0.184800
      5 N5          -2.0560     1.4860     0.2540 n3         1 J0W      -0.740600
      6 C6          -3.4940     1.5360     0.1050 c6         1 J0W       0.183800
      7 C7          -3.9350     0.4900    -0.8940 c6         1 J0W      -0.033100
      8 C8          -3.3970    -0.8580    -0.5140 ca         1 J0W      -0.030300
      9 C9          -4.0140    -2.0090    -0.9990 ca         1 J0W      -0.173000
     10 C10         -3.5450    -3.2690    -0.6600 ca         1 J0W       0.131100
     11 C11         -2.4410    -3.3790     0.1840 ca         1 J0W      -0.225000
     12 C12         -1.8340    -2.2320     0.6610 ca         1 J0W      -0.070000
     13 C13         -2.2880    -0.9580     0.3240 ca         1 J0W      -0.094300
     14 C14         -1.5660     0.2640     0.8970 c6         1 J0W       0.320800
     15 C15         -1.7920     0.2740     2.4200 c3         1 J0W      -0.112100
     16 C16         -0.0870     0.1260     0.5310 ca         1 J0W      -0.119300
     17 C17          0.2760     0.1800    -0.8130 ca         1 J0W      -0.114500
     18 C18          1.5960     0.0490    -1.2020 ca         1 J0W      -0.150000
     19 C19          2.6180    -0.1350    -0.2630 ca         1 J0W       0.008200
     20 C20          2.2500    -0.1930     1.0810 ca         1 J0W      -0.150000
     21 C21          0.9230    -0.0660     1.4680 ca         1 J0W      -0.114500
     22 C22          4.0010    -0.2490    -0.7280 ce         1 J0W      -0.192200
     23 C23          5.0980    -0.3390     0.0280 cf         1 J0W      -0.161200
     24 C24          6.4930    -0.4460    -0.5430 c          1 J0W       0.905800
     25 O25          6.6180    -0.4580    -1.7840 o          1 J0W      -0.828300
     26 O26          7.4120    -0.5120     0.3000 o          1 J0W      -0.828300
     27 O27         -4.1850    -4.3450    -1.1670 oh         1 J0W      -0.504100
     28 H11C        -0.8130     5.9490    -0.1800 hc         1 J0W       0.034033
     29 H12C        -1.3190     5.3560     1.4000 hc         1 J0W       0.034033
     30 H13C         0.2340     4.8600     0.7270 hc         1 J0W       0.034033
     31 H2          -2.5020     4.1650    -0.4270 hc         1 J0W       0.030700
     32 H31C         0.2600     3.2030    -1.3120 hc         1 J0W       0.034033
     33 H32C        -1.2760     2.6850    -1.9950 hc         1 J0W       0.034033
     34 H33C        -0.7530     4.3630    -2.1760 hc         1 J0W       0.034033
     35 H41C        -0.4570     2.5120     1.0910 h1         1 J0W       0.035200
     36 H42C        -2.0130     3.0310     1.7130 h1         1 J0W       0.035200
     37 H61C        -4.0320     1.3980     1.0580 h1         1 J0W       0.026700
     38 H62C        -3.7760     2.5240    -0.2590 h1         1 J0W       0.026700
     39 H71C        -5.0250     0.4580    -0.9580 hc         1 J0W       0.051700
     40 H72C        -3.5680     0.7670    -1.8870 hc         1 J0W       0.051700
     41 H9          -4.8790    -1.9190    -1.6480 ha         1 J0W       0.136000
     42 H11         -2.0550    -4.3520     0.4640 ha         1 J0W       0.128000
     43 H27         -3.7700    -5.1570    -0.8570 ho         1 J0W       0.421000
     44 H12         -0.9740    -2.3410     1.3120 ha         1 J0W       0.141000
     45 H151        -2.8520     0.4120     2.6400 hc         1 J0W       0.036700
     46 H152        -1.4900    -0.6660     2.8810 hc         1 J0W       0.036700
     47 H153        -1.2430     1.0780     2.9120 hc         1 J0W       0.036700
     48 H17         -0.4890     0.3340    -1.5620 ha         1 J0W       0.120500
     49 H21          0.6940    -0.1160     2.5250 ha         1 J0W       0.120500
     50 H18          1.8460     0.0940    -2.2560 ha         1 J0W       0.132000
     51 H20          3.0030    -0.3360     1.8450 ha         1 J0W       0.132000
     52 H22          4.1300    -0.2520    -1.8070 ha         1 J0W       0.141000
     53 H23          5.0210    -0.3310     1.1110 ha         1 J0W       0.092000
@<TRIPOS>BOND
     1     1     2 1   
     2     1    28 1   
     3     1    29 1   
     4     1    30 1   
     5     2     3 1   
     6     2     4 1   
     7     2    31 1   
     8     3    32 1   
     9     3    33 1   
    10     3    34 1   
    11     4     5 1   
    12     4    35 1   
    13     4    36 1   
    14     5     6 1   
    15     5    14 1   
    16     6     7 1   
    17     6    37 1   
    18     6    38 1   
    19     7     8 1   
    20     7    39 1   
    21     7    40 1   
    22     8     9 ar  
    23     8    13 ar  
    24     9    10 ar  
    25     9    41 1   
    26    10    11 ar  
    27    10    27 1   
    28    11    12 ar  
    29    11    42 1   
    30    12    13 ar  
    31    12    44 1   
    32    13    14 1   
    33    14    15 1   
    34    14    16 1   
    35    15    45 1   
    36    15    46 1   
    37    15    47 1   
    38    16    17 ar  
    39    16    21 ar  
    40    17    18 ar  
    41    17    48 1   
    42    18    19 ar  
    43    18    50 1   
    44    19    20 ar  
    45    19    22 1   
    46    20    21 ar  
    47    20    51 1   
    48    21    49 1   
    49    22    23 2   
    50    22    52 1   
    51    23    24 1   
    52    23    53 1   
    53    24    25 1   
    54    24    26 1   
    55    27    43 1   
@<TRIPOS>SUBSTRUCTURE
     1 J0W         1 TEMP              0 ****  ****    0 ROOT
