@<TRIPOS>MOLECULE
J0Y
   40    41     1     0     0
SMALL
No Charge or Current Charge


@<TRIPOS>ATOM
      1 FBA        -17.3530     8.5650    -9.3140 f          1 J0Y      -0.096667
      2 CAZ        -18.0200     8.1290   -10.4080 c3         1 J0Y       0.284000
      3 FBB        -19.1150     8.9090   -10.5590 f          1 J0Y      -0.096667
      4 FBC        -18.4570     6.8700   -10.1710 f          1 J0Y      -0.096667
      5 CAQ        -17.1310     8.1780   -11.6710 c3         1 J0Y       0.040300
      6 FAY        -16.1050     7.2840   -11.5640 f          1 J0Y      -0.231000
      7 CAP        -16.6290     9.6070   -11.9540 c          1 J0Y       0.585100
      8 OAR        -17.3300    10.4620   -12.4780 o          1 J0Y      -0.563100
      9 N          -15.3160     9.8560   -11.6150 ns         1 J0Y      -0.483900
     10 CA         -14.6160    11.1390   -11.8220 c3         1 J0Y       0.102000
     11 C          -13.3650    11.2370   -10.9010 c          1 J0Y       0.572100
     12 O          -12.9720    10.3170   -10.1900 o          1 J0Y      -0.615100
     13 NAS        -12.6780    12.4430   -10.9400 ns         1 J0Y      -0.362400
     14 OAU        -11.4030    12.5760   -10.2680 oh         1 J0Y      -0.433100
     15 CAJ        -14.2440    11.3250   -13.2940 ca         1 J0Y      -0.103300
     16 CAK        -13.3480    10.4390   -13.9230 ca         1 J0Y      -0.087000
     17 CAL        -13.0080    10.6130   -15.2750 ca         1 J0Y      -0.090000
     18 CAI        -14.7970    12.3830   -14.0380 ca         1 J0Y      -0.087000
     19 CAH        -14.4560    12.5550   -15.3910 ca         1 J0Y      -0.090000
     20 CAG        -13.5530    11.6750   -16.0380 cp         1 J0Y      -0.031000
     21 CAC        -13.1910    11.8580   -17.4800 cp         1 J0Y       0.006000
     22 CAB        -11.8850    11.5650   -17.9500 ca         1 J0Y      -0.135000
     23 CAA        -11.5460    11.7390   -19.3020 ca         1 J0Y       0.159000
     24 FAV        -10.2890    11.4530   -19.7150 f          1 J0Y      -0.156000
     25 CAF        -12.5020    12.2070   -20.2190 ca         1 J0Y       0.094000
     26 FAW        -12.1730    12.3740   -21.5230 f          1 J0Y      -0.141000
     27 CAE        -13.8010    12.5020   -19.7720 ca         1 J0Y       0.159000
     28 FAX        -14.7350    12.9510   -20.6420 f          1 J0Y      -0.156000
     29 CAD        -14.1420    12.3310   -18.4200 ca         1 J0Y      -0.135000
     30 H1         -17.7380     7.8870   -12.5360 h1         1 J0Y       0.117700
     31 H2         -14.8020     9.0920   -11.1860 hn         1 J0Y       0.361500
     32 H3         -15.2870    11.9520   -11.5130 h1         1 J0Y       0.091700
     33 H4         -12.8900    13.1300   -11.6640 hn         1 J0Y       0.367500
     34 H5         -11.1890    11.6410   -10.0250 ho         1 J0Y       0.479000
     35 H6         -12.9170     9.6090   -13.3670 ha         1 J0Y       0.118500
     36 H7         -12.3250     9.9050   -15.7380 ha         1 J0Y       0.122000
     37 H8         -15.4940    13.0760   -13.5730 ha         1 J0Y       0.118500
     38 H9         -14.8880    13.3890   -15.9380 ha         1 J0Y       0.122000
     39 H10        -11.1220    11.2150   -17.2610 ha         1 J0Y       0.143000
     40 H11        -15.1570    12.5540   -18.1050 ha         1 J0Y       0.143000
@<TRIPOS>BOND
     1     1     2 1   
     2     2     3 1   
     3     2     4 1   
     4     2     5 1   
     5     5     6 1   
     6     5     7 1   
     7     5    30 1   
     8     7     8 2   
     9     7     9 1   
    10     9    10 1   
    11     9    31 1   
    12    10    11 1   
    13    10    15 1   
    14    10    32 1   
    15    11    12 2   
    16    11    13 1   
    17    13    14 1   
    18    13    33 1   
    19    14    34 1   
    20    15    16 ar  
    21    15    18 ar  
    22    16    17 ar  
    23    16    35 1   
    24    17    20 ar  
    25    17    36 1   
    26    18    19 ar  
    27    18    37 1   
    28    19    20 ar  
    29    19    38 1   
    30    20    21 1   
    31    21    22 ar  
    32    21    29 ar  
    33    22    23 ar  
    34    22    39 1   
    35    23    24 1   
    36    23    25 ar  
    37    25    26 1   
    38    25    27 ar  
    39    27    28 1   
    40    27    29 ar  
    41    29    40 1   
@<TRIPOS>SUBSTRUCTURE
     1 J0Y         1 TEMP              0 ****  ****    0 ROOT
