@<TRIPOS>MOLECULE
J0Y
   40    41     1     0     0
SMALL
abcg2


@<TRIPOS>ATOM
      1 FBA        -17.0250     8.6700    -9.0990 f          1 J0Y      -0.096667
      2 CAZ        -17.6780     8.0240   -10.0820 c3         1 J0Y       0.284000
      3 FBB        -18.8720     8.6070   -10.2400 f          1 J0Y      -0.096667
      4 FBC        -17.8830     6.7620    -9.6680 f          1 J0Y      -0.096667
      5 CAQ        -16.8780     8.0330   -11.3900 c3         1 J0Y       0.040300
      6 FAY        -15.7330     7.2850   -11.1600 f          1 J0Y      -0.231000
      7 CAP        -16.5430     9.4620   -11.8360 c          1 J0Y       0.585100
      8 OAR        -17.4300    10.1740   -12.2840 o          1 J0Y      -0.563100
      9 N          -15.2660     9.8190   -11.6790 ns         1 J0Y      -0.483900
     10 CA         -14.7800    11.1350   -12.0380 c3         1 J0Y       0.102000
     11 C          -13.5240    11.3770   -11.1990 c          1 J0Y       0.572100
     12 O          -12.7020    10.4870   -10.9670 o          1 J0Y      -0.615100
     13 NAS        -13.3570    12.6180   -10.7530 ns         1 J0Y      -0.362400
     14 OAU        -12.1770    12.9490   -10.1010 oh         1 J0Y      -0.433100
     15 CAJ        -14.4240    11.2830   -13.5090 ca         1 J0Y      -0.103300
     16 CAK        -13.9890    10.1990   -14.2660 ca         1 J0Y      -0.087000
     17 CAL        -13.5910    10.3770   -15.5840 ca         1 J0Y      -0.090000
     18 CAI        -14.4670    12.5450   -14.0980 ca         1 J0Y      -0.087000
     19 CAH        -14.0660    12.7240   -15.4130 ca         1 J0Y      -0.090000
     20 CAG        -13.6110    11.6440   -16.1760 cp         1 J0Y      -0.031000
     21 CAC        -13.1490    11.8420   -17.5680 cp         1 J0Y       0.006000
     22 CAB        -12.0950    11.0740   -18.0770 ca         1 J0Y      -0.135000
     23 CAA        -11.6570    11.2800   -19.3690 ca         1 J0Y       0.159000
     24 FAV        -10.6330    10.5600   -19.8610 f          1 J0Y      -0.156000
     25 CAF        -12.2370    12.2370   -20.1870 ca         1 J0Y       0.094000
     26 FAW        -11.8020    12.4250   -21.4410 f          1 J0Y      -0.141000
     27 CAE        -13.2790    12.9950   -19.6730 ca         1 J0Y       0.159000
     28 FAX        -13.8430    13.9210   -20.4690 f          1 J0Y      -0.156000
     29 CAD        -13.7400    12.8100   -18.3860 ca         1 J0Y      -0.135000
     30 H1         -17.4700     7.5470   -12.1660 h1         1 J0Y       0.117700
     31 H2         -14.5930     9.1560   -11.3200 hn         1 J0Y       0.361500
     32 H3         -15.5430    11.8710   -11.7820 h1         1 J0Y       0.091700
     33 H4         -13.9390    13.4150   -10.9600 hn         1 J0Y       0.367500
     34 H5         -11.6960    12.0980   -10.0790 ho         1 J0Y       0.479000
     35 H6         -13.9680     9.2080   -13.8320 ha         1 J0Y       0.118500
     36 H7         -13.2730     9.5180   -16.1590 ha         1 J0Y       0.122000
     37 H8         -14.8070    13.3970   -13.5200 ha         1 J0Y       0.118500
     38 H9         -14.0850    13.7180   -15.8400 ha         1 J0Y       0.122000
     39 H10        -11.5930    10.3330   -17.4710 ha         1 J0Y       0.143000
     40 H11        -14.5680    13.4130   -18.0420 ha         1 J0Y       0.143000
@<TRIPOS>BOND
     1     1     2 1   
     2     2     3 1   
     3     2     4 1   
     4     2     5 1   
     5     5     6 1   
     6     5     7 1   
     7     5    30 1   
     8     7     8 2   
     9     7     9 1   
    10     9    10 1   
    11     9    31 1   
    12    10    11 1   
    13    10    15 1   
    14    10    32 1   
    15    11    12 2   
    16    11    13 1   
    17    13    14 1   
    18    13    33 1   
    19    14    34 1   
    20    15    16 ar  
    21    15    18 ar  
    22    16    17 ar  
    23    16    35 1   
    24    17    20 ar  
    25    17    36 1   
    26    18    19 ar  
    27    18    37 1   
    28    19    20 ar  
    29    19    38 1   
    30    20    21 1   
    31    21    22 ar  
    32    21    29 ar  
    33    22    23 ar  
    34    22    39 1   
    35    23    24 1   
    36    23    25 ar  
    37    25    26 1   
    38    25    27 ar  
    39    27    28 1   
    40    27    29 ar  
    41    29    40 1   
@<TRIPOS>SUBSTRUCTURE
     1 J0Y         1 TEMP              0 ****  ****    0 ROOT
