@<TRIPOS>MOLECULE
J0Z
   21    21     1     0     0
SMALL
abcg2


@<TRIPOS>ATOM
      1 CAA          3.5320    -0.0660    -1.2990 c3         1 J0Z      -0.157100
      2 CAJ          2.7680    -0.0050    -0.0100 c          1 J0Z       0.592100
      3 OAB          3.2560     0.0360     1.0900 o          1 J0Z      -0.488000
      4 OAI          1.4540     0.0040    -0.2260 os         1 J0Z      -0.447100
      5 CAH          0.5980     0.0610     0.9210 c3         1 J0Z       0.210900
      6 CAK         -0.8150     0.0430     0.4240 ca         1 J0Z      -0.097300
      7 CAF         -1.4550    -1.1640     0.1630 ca         1 J0Z      -0.085500
      8 CAD         -2.7530    -1.1830    -0.3220 ca         1 J0Z      -0.115000
      9 CAC         -3.4270     0.0080    -0.5510 ca         1 J0Z      -0.099000
     10 CAE         -2.7980     1.2170    -0.2920 ca         1 J0Z      -0.115000
     11 CAG         -1.4980     1.2320     0.1910 ca         1 J0Z      -0.085500
     12 HAA          4.6000    -0.1030    -1.1060 hc         1 J0Z       0.069367
     13 HAAA         3.2430    -0.9450    -1.8740 hc         1 J0Z       0.069367
     14 HAAB         3.3130     0.8070    -1.9130 hc         1 J0Z       0.069367
     15 HAH          0.7940    -0.7910     1.5760 h1         1 J0Z       0.054200
     16 HAHA         0.8010     0.9690     1.4940 h1         1 J0Z       0.054200
     17 HAF         -0.9360    -2.0980     0.3430 ha         1 J0Z       0.114000
     18 HAD         -3.2410    -2.1280    -0.5190 ha         1 J0Z       0.114000
     19 HAC         -4.4420    -0.0060    -0.9270 ha         1 J0Z       0.113000
     20 HAE         -3.3180     2.1490    -0.4660 ha         1 J0Z       0.114000
     21 HAG         -1.0120     2.1790     0.3930 ha         1 J0Z       0.114000
@<TRIPOS>BOND
     1     1     2 1   
     2     1    12 1   
     3     1    13 1   
     4     1    14 1   
     5     2     3 2   
     6     2     4 1   
     7     4     5 1   
     8     5     6 1   
     9     5    15 1   
    10     5    16 1   
    11     6     7 ar  
    12     6    11 ar  
    13     7     8 ar  
    14     7    17 1   
    15     8     9 ar  
    16     8    18 1   
    17     9    10 ar  
    18     9    19 1   
    19    10    11 ar  
    20    10    20 1   
    21    11    21 1   
@<TRIPOS>SUBSTRUCTURE
     1 J0Z         1 TEMP              0 ****  ****    0 ROOT
