@<TRIPOS>MOLECULE
J0Z
   21    21     1     0     0
SMALL
No Charge or Current Charge


@<TRIPOS>ATOM
      1 CAA          3.6310    -0.0240    -1.2900 c3         1 J0Z      -0.157100
      2 CAJ          2.8360    -0.0000     0.0070 c          1 J0Z       0.592100
      3 OAB          3.3490     0.0140     1.1180 o          1 J0Z      -0.488000
      4 OAI          1.4880     0.0020    -0.2280 os         1 J0Z      -0.447100
      5 CAH          0.6080     0.0230     0.9090 c3         1 J0Z       0.210900
      6 CAK         -0.8290     0.0220     0.4030 ca         1 J0Z      -0.097300
      7 CAF         -1.5030    -1.1950     0.1830 ca         1 J0Z      -0.085500
      8 CAD         -2.8300    -1.1960    -0.2830 ca         1 J0Z      -0.115000
      9 CAC         -3.4890     0.0190    -0.5330 ca         1 J0Z      -0.099000
     10 CAE         -2.8210     1.2360    -0.3170 ca         1 J0Z      -0.115000
     11 CAG         -1.4940     1.2380     0.1490 ca         1 J0Z      -0.085500
     12 HAA          4.7140    -0.0260    -1.1220 hc         1 J0Z       0.069367
     13 HAAA         3.3080    -0.8840    -1.8870 hc         1 J0Z       0.069367
     14 HAAB         3.3160     0.8210    -1.9130 hc         1 J0Z       0.069367
     15 HAH          0.7730    -0.8560     1.5460 h1         1 J0Z       0.054200
     16 HAHA         0.7810     0.9200     1.5190 h1         1 J0Z       0.054200
     17 HAF         -0.9990    -2.1410     0.3710 ha         1 J0Z       0.114000
     18 HAD         -3.3460    -2.1390    -0.4510 ha         1 J0Z       0.114000
     19 HAC         -4.5160     0.0180    -0.8930 ha         1 J0Z       0.113000
     20 HAE         -3.3290     2.1780    -0.5110 ha         1 J0Z       0.114000
     21 HAG         -0.9830     2.1850     0.3110 ha         1 J0Z       0.114000
@<TRIPOS>BOND
     1     1     2 1   
     2     1    12 1   
     3     1    13 1   
     4     1    14 1   
     5     2     3 2   
     6     2     4 1   
     7     4     5 1   
     8     5     6 1   
     9     5    15 1   
    10     5    16 1   
    11     6     7 ar  
    12     6    11 ar  
    13     7     8 ar  
    14     7    17 1   
    15     8     9 ar  
    16     8    18 1   
    17     9    10 ar  
    18     9    19 1   
    19    10    11 ar  
    20    10    20 1   
    21    11    21 1   
@<TRIPOS>SUBSTRUCTURE
     1 J0Z         1 TEMP              0 ****  ****    0 ROOT
