@<TRIPOS>MOLECULE
J10
   44    43     1     0     0
SMALL
bcc


@<TRIPOS>ATOM
      1 C1          28.4630    -3.7700    49.0610 c3         1 J10       0.130700
      2 O1          29.3460    -4.5110    48.2270 os         1 J10      -0.421900
      3 C2          30.2460    -5.2950    48.8250 c          1 J10       0.648300
      4 O2          30.3210    -5.3950    50.0290 o          1 J10      -0.544000
      5 C3          31.0800    -5.9670    47.8210 ce         1 J10      -0.245200
      6 C4          32.0070    -6.9080    48.0640 c2         1 J10      -0.015400
      7 C5          32.7880    -7.4840    46.9250 c3         1 J10      -0.073900
      8 C6          32.3830    -7.4410    49.4150 c3         1 J10      -0.054200
      9 C7          33.4990    -6.5980    50.0590 c3         1 J10      -0.027200
     10 C8          33.9690    -7.2100    51.3420 c2         1 J10      -0.182200
     11 C9          33.7220    -6.7920    52.5850 c2         1 J10      -0.094400
     12 C10         32.9220    -5.5670    52.9200 c3         1 J10      -0.059900
     13 C11         34.2540    -7.4970    53.8090 c3         1 J10      -0.038200
     14 C12         34.8380    -8.9000    53.6340 c3         1 J10      -0.034200
     15 C13         33.8200    -9.9310    53.2370 c2         1 J10      -0.167200
     16 C14         33.1000   -10.7000    54.0590 c2         1 J10      -0.116400
     17 C15         32.0980   -11.6830    53.5260 c3         1 J10      -0.054900
     18 C16         33.1960   -10.6670    55.5560 c3         1 J10      -0.054900
     19 H3          27.8260    -3.2000    48.3920 h1         1 J10       0.045700
     20 H1          27.8440    -4.4250    49.6740 h1         1 J10       0.045700
     21 H2          29.0050    -3.0840    49.7120 h1         1 J10       0.045700
     22 H4          30.9100    -5.6630    46.7950 ha         1 J10       0.145000
     23 H7          32.5940    -8.5560    46.8410 hc         1 J10       0.049367
     24 H5          32.5540    -7.0130    45.9720 hc         1 J10       0.049367
     25 H6          33.8600    -7.3790    47.1080 hc         1 J10       0.049367
     26 H8          31.5300    -7.4740    50.0880 hc         1 J10       0.061700
     27 H9          32.7430    -8.4670    49.2960 hc         1 J10       0.061700
     28 H10         34.3430    -6.5360    49.3640 hc         1 J10       0.046200
     29 H11         33.1390    -5.5790    50.1970 hc         1 J10       0.046200
     30 H12         34.5540    -8.1160    51.2090 ha         1 J10       0.114000
     31 H15         33.5010    -4.8900    53.5520 hc         1 J10       0.042367
     32 H13         32.5900    -5.0060    52.0490 hc         1 J10       0.042367
     33 H14         32.0330    -5.8400    53.4950 hc         1 J10       0.042367
     34 H16         35.0130    -6.8480    54.2640 hc         1 J10       0.045200
     35 H17         33.4500    -7.5520    54.5510 hc         1 J10       0.045200
     36 H19         35.3120    -9.1780    54.5780 hc         1 J10       0.042200
     37 H18         35.6460    -8.8800    52.8980 hc         1 J10       0.042200
     38 H20         33.6440   -10.0440    52.1710 ha         1 J10       0.117000
     39 H23         31.0960   -11.4640    53.9030 hc         1 J10       0.037700
     40 H21         32.0580   -11.6800    52.4370 hc         1 J10       0.037700
     41 H22         32.3340   -12.6990    53.8530 hc         1 J10       0.037700
     42 H25         33.4490   -11.6550    55.9480 hc         1 J10       0.037700
     43 H26         33.9340    -9.9600    55.9310 hc         1 J10       0.037700
     44 H24         32.2310   -10.4010    55.9950 hc         1 J10       0.037700
@<TRIPOS>BOND
     1     1     2 1   
     2     1    19 1   
     3     1    20 1   
     4     1    21 1   
     5     2     3 1   
     6     3     4 2   
     7     3     5 1   
     8     5     6 2   
     9     5    22 1   
    10     6     7 1   
    11     6     8 1   
    12     7    23 1   
    13     7    24 1   
    14     7    25 1   
    15     8     9 1   
    16     8    26 1   
    17     8    27 1   
    18     9    10 1   
    19     9    28 1   
    20     9    29 1   
    21    10    11 2   
    22    10    30 1   
    23    11    12 1   
    24    11    13 1   
    25    12    31 1   
    26    12    32 1   
    27    12    33 1   
    28    13    14 1   
    29    13    34 1   
    30    13    35 1   
    31    14    15 1   
    32    14    36 1   
    33    14    37 1   
    34    15    16 2   
    35    15    38 1   
    36    16    17 1   
    37    16    18 1   
    38    17    39 1   
    39    17    40 1   
    40    17    41 1   
    41    18    42 1   
    42    18    43 1   
    43    18    44 1   
@<TRIPOS>SUBSTRUCTURE
     1 J10         1 TEMP              0 ****  ****    0 ROOT
