@<TRIPOS>MOLECULE
J10
   44    43     1     0     0
SMALL
No Charge or Current Charge


@<TRIPOS>ATOM
      1 C1          28.0880    -4.6020    49.1970 c3         1 J10       0.153900
      2 O1          29.1850    -4.8520    48.2990 os         1 J10      -0.445100
      3 C2          30.2420    -5.5890    48.7630 c          1 J10       0.599300
      4 O2          30.3130    -6.0480    49.8930 o          1 J10      -0.495000
      5 C3          31.2740    -5.7360    47.6960 ce         1 J10      -0.295200
      6 C4          32.4620    -6.3910    47.7670 c2         1 J10      -0.015400
      7 C5          33.4170    -6.4340    46.5860 c3         1 J10      -0.073900
      8 C6          33.0180    -7.1380    48.9750 c3         1 J10      -0.054200
      9 C7          33.7970    -6.2170    49.9390 c3         1 J10      -0.027200
     10 C8          34.4430    -6.9950    51.0730 c2         1 J10      -0.232200
     11 C9          33.9540    -7.2280    52.3070 c2         1 J10      -0.094400
     12 C10         32.6020    -6.7520    52.8240 c3         1 J10      -0.059900
     13 C11         34.7530    -8.0030    53.3460 c3         1 J10      -0.038200
     14 C12         34.6140    -9.5370    53.2150 c3         1 J10      -0.034200
     15 C13         33.1950   -10.0350    53.4270 c2         1 J10      -0.217200
     16 C14         32.5950   -10.3290    54.5960 c2         1 J10      -0.116400
     17 C15         31.1650   -10.8310    54.6700 c3         1 J10      -0.054900
     18 C16         33.2320   -10.1940    55.9710 c3         1 J10      -0.054900
     19 H3          27.3150    -4.0040    48.6990 h1         1 J10       0.045700
     20 H1          27.6300    -5.5440    49.5260 h1         1 J10       0.045700
     21 H2          28.4260    -4.0510    50.0840 h1         1 J10       0.045700
     22 H4          31.0020    -5.2390    46.7680 ha         1 J10       0.195000
     23 H7          33.5690    -7.4630    46.2380 hc         1 J10       0.049367
     24 H5          33.0400    -5.8550    45.7350 hc         1 J10       0.049367
     25 H6          34.3970    -6.0220    46.8520 hc         1 J10       0.049367
     26 H8          32.2190    -7.6440    49.5270 hc         1 J10       0.061700
     27 H9          33.6860    -7.9440    48.6480 hc         1 J10       0.061700
     28 H10         34.5740    -5.6850    49.3780 hc         1 J10       0.046200
     29 H11         33.1250    -5.4390    50.3180 hc         1 J10       0.046200
     30 H12         35.4290    -7.3820    50.8120 ha         1 J10       0.164000
     31 H15         32.7280    -6.0610    53.6660 hc         1 J10       0.042367
     32 H13         32.0140    -6.2310    52.0640 hc         1 J10       0.042367
     33 H14         31.9910    -7.5910    53.1750 hc         1 J10       0.042367
     34 H16         35.8170    -7.7580    53.2400 hc         1 J10       0.045200
     35 H17         34.4820    -7.6940    54.3630 hc         1 J10       0.045200
     36 H19         35.2980   -10.0140    53.9270 hc         1 J10       0.042200
     37 H18         34.9660    -9.8430    52.2220 hc         1 J10       0.042200
     38 H20         32.6440   -10.1590    52.4930 ha         1 J10       0.167000
     39 H23         30.5360   -10.1480    55.2530 hc         1 J10       0.037700
     40 H21         30.7130   -10.9230    53.6750 hc         1 J10       0.037700
     41 H22         31.1170   -11.8180    55.1440 hc         1 J10       0.037700
     42 H25         33.2870   -11.1670    56.4740 hc         1 J10       0.037700
     43 H26         34.2480    -9.7890    55.9330 hc         1 J10       0.037700
     44 H24         32.6440    -9.5240    56.6100 hc         1 J10       0.037700
@<TRIPOS>BOND
     1     1     2 1   
     2     1    19 1   
     3     1    20 1   
     4     1    21 1   
     5     2     3 1   
     6     3     4 2   
     7     3     5 1   
     8     5     6 2   
     9     5    22 1   
    10     6     7 1   
    11     6     8 1   
    12     7    23 1   
    13     7    24 1   
    14     7    25 1   
    15     8     9 1   
    16     8    26 1   
    17     8    27 1   
    18     9    10 1   
    19     9    28 1   
    20     9    29 1   
    21    10    11 2   
    22    10    30 1   
    23    11    12 1   
    24    11    13 1   
    25    12    31 1   
    26    12    32 1   
    27    12    33 1   
    28    13    14 1   
    29    13    34 1   
    30    13    35 1   
    31    14    15 1   
    32    14    36 1   
    33    14    37 1   
    34    15    16 2   
    35    15    38 1   
    36    16    17 1   
    37    16    18 1   
    38    17    39 1   
    39    17    40 1   
    40    17    41 1   
    41    18    42 1   
    42    18    43 1   
    43    18    44 1   
@<TRIPOS>SUBSTRUCTURE
     1 J10         1 TEMP              0 ****  ****    0 ROOT
