@<TRIPOS>MOLECULE
J11
   57    59     1     0     0
SMALL
abcg2


@<TRIPOS>ATOM
      1 C1           0.4950    -1.0980    -0.9060 c3         1 J11       0.157800
      2 N1          -0.7520    -0.7230    -0.2720 n7         1 J11      -0.861400
      3 C2           1.6470    -0.2770    -0.3520 c3         1 J11       0.154800
      4 N2           2.9000    -0.6670    -0.9690 n7         1 J11      -0.862400
      5 C3           4.0380     0.0530    -0.4380 c3         1 J11       0.161800
      6 C4           5.3290    -0.3840    -1.1290 c3         1 J11      -0.038100
      7 N3          -2.8010    -2.9340     0.8520 n7         1 J11      -0.861400
      8 C11          6.5240     0.3200    -0.5520 ca         1 J11      -0.052300
      9 N11         -6.3560    -0.2580    -0.5140 nb         1 J11      -0.754000
     10 C12          7.2000    -0.2270     0.5350 ca         1 J11      -0.152000
     11 C13          8.2680     0.4580     1.0820 ca         1 J11       0.171000
     12 F13          8.9110    -0.0870     2.1300 f          1 J11      -0.182000
     13 C14          8.6990     1.6750     0.5940 ca         1 J11      -0.153000
     14 C15          8.0200     2.2170    -0.4900 ca         1 J11      -0.083000
     15 C16          6.9440     1.5490    -1.0570 ca         1 J11      -0.123000
     16 C9          -1.9630    -2.9510    -0.3350 c5         1 J11       0.109800
     17 C21         -5.2680     0.5120    -0.5690 ca         1 J11       0.399300
     18 C10         -1.9060    -1.4670    -0.7450 c5         1 J11       0.174500
     19 C31         -5.2410     1.8040    -0.0710 ca         1 J11      -0.213000
     20 C17         -3.2070    -0.8760    -0.1460 c5         1 J11      -0.059700
     21 C41         -6.3960     2.3320     0.5160 ca         1 J11       0.000700
     22 C5          -3.9150    -2.0780     0.4820 c5         1 J11       0.148800
     23 C51         -7.5180     1.5310     0.5760 ca         1 J11      -0.231000
     24 C61         -7.4570     0.2300     0.0470 ca         1 J11       0.596900
     25 N61         -8.5620    -0.5740     0.0450 nv         1 J11      -1.053900
     26 C71         -4.0340    -0.1000    -1.1690 c3         1 J11      -0.121700
     27 C81         -6.4040     3.7300     1.0540 c3         1 J11      -0.053800
     28 H1           0.7340    -2.1690    -0.7930 h1         1 J11       0.033700
     29 H1A          0.4070    -0.9160    -1.9820 h1         1 J11       0.033700
     30 HN1         -0.6710    -0.8560     0.7310 hn         1 J11       0.417000
     31 H2           1.4700     0.7820    -0.5600 h1         1 J11       0.037200
     32 H2A          1.6690    -0.3790     0.7470 h1         1 J11       0.037200
     33 HN2          3.0430    -1.6590    -0.8080 hn         1 J11       0.402000
     34 H3           3.8850     1.1240    -0.6090 h1         1 J11       0.034700
     35 H3A          4.1500    -0.0720     0.6510 h1         1 J11       0.034700
     36 H4           5.4460    -1.4650    -1.0170 hc         1 J11       0.056200
     37 H4A          5.2480    -0.1790    -2.1990 hc         1 J11       0.056200
     38 H6          -3.1090    -3.8630     1.1100 hn         1 J11       0.411000
     39 H12          6.9000    -1.1820     0.9500 ha         1 J11       0.129000
     40 H14          9.5400     2.1860     1.0450 ha         1 J11       0.132000
     41 H15          8.3380     3.1700    -0.8930 ha         1 J11       0.117000
     42 H16          6.4250     1.9840    -1.9030 ha         1 J11       0.119000
     43 H9          -0.9760    -3.3730    -0.1240 h1         1 J11       0.037700
     44 H2'A        -2.4010    -3.5430    -1.1530 h1         1 J11       0.037700
     45 H10         -1.9140    -1.3830    -1.8360 h1         1 J11       0.061700
     46 H31         -4.3380     2.3980    -0.1400 ha         1 J11       0.124000
     47 H11         -2.9210    -0.1860     0.6550 hc         1 J11       0.069700
     48 H5          -4.5900    -2.5460    -0.2510 h1         1 J11       0.045700
     49 H5'A        -4.5160    -1.8060     1.3520 h1         1 J11       0.045700
     50 H51         -8.4380     1.8950     1.0190 ha         1 J11       0.118000
     51 HN61        -8.3890    -1.5580    -0.0750 hn         1 J11       0.466000
     52 HN6A        -9.2870    -0.3660     0.7120 hn         1 J11       0.466000
     53 H71         -4.3230    -0.7670    -1.9860 hc         1 J11       0.059200
     54 H71A        -3.4080     0.6860    -1.5980 hc         1 J11       0.059200
     55 H81         -6.1560     4.4460     0.2680 hc         1 J11       0.046367
     56 H81A        -7.3770     4.0020     1.4620 hc         1 J11       0.046367
     57 H81B        -5.6600     3.8510     1.8410 hc         1 J11       0.046367
@<TRIPOS>BOND
     1     1     2 1   
     2     1     3 1   
     3     1    28 1   
     4     1    29 1   
     5     2    18 1   
     6     2    30 1   
     7     3     4 1   
     8     3    31 1   
     9     3    32 1   
    10     4     5 1   
    11     4    33 1   
    12     5     6 1   
    13     5    34 1   
    14     5    35 1   
    15     6     8 1   
    16     6    36 1   
    17     6    37 1   
    18     7    16 1   
    19     7    22 1   
    20     7    38 1   
    21     8    10 ar  
    22     8    15 ar  
    23     9    17 ar  
    24     9    24 ar  
    25    10    11 ar  
    26    10    39 1   
    27    11    12 1   
    28    11    13 ar  
    29    13    14 ar  
    30    13    40 1   
    31    14    15 ar  
    32    14    41 1   
    33    15    42 1   
    34    16    18 1   
    35    16    43 1   
    36    16    44 1   
    37    17    19 ar  
    38    17    26 1   
    39    18    20 1   
    40    18    45 1   
    41    19    21 ar  
    42    19    46 1   
    43    20    22 1   
    44    20    26 1   
    45    20    47 1   
    46    21    23 ar  
    47    21    27 1   
    48    22    48 1   
    49    22    49 1   
    50    23    24 ar  
    51    23    50 1   
    52    24    25 1   
    53    25    51 1   
    54    25    52 1   
    55    26    53 1   
    56    26    54 1   
    57    27    55 1   
    58    27    56 1   
    59    27    57 1   
@<TRIPOS>SUBSTRUCTURE
     1 J11         1 TEMP              0 ****  ****    0 ROOT
