@<TRIPOS>MOLECULE
J11
   57    59     1     0     0
SMALL
No Charge or Current Charge


@<TRIPOS>ATOM
      1 C1           0.4860    -1.4090    -0.5330 c3         1 J11       0.157800
      2 N1          -0.8400    -0.8940    -0.1170 n7         1 J11      -0.861400
      3 C2           1.6150    -0.3840    -0.2360 c3         1 J11       0.154800
      4 N2           2.9460    -0.9070    -0.6270 n7         1 J11      -0.862400
      5 C3           4.0710     0.0230    -0.4090 c3         1 J11       0.161800
      6 C4           5.3970    -0.6080    -0.8780 c3         1 J11      -0.038100
      7 N3          -3.4780    -3.3270     0.7470 n7         1 J11      -0.861400
      8 C11          6.5790     0.3300    -0.6710 ca         1 J11      -0.052300
      9 N11         -6.1720     0.4240    -1.2270 nb         1 J11      -0.754000
     10 C12          7.3280     0.2790     0.5210 ca         1 J11      -0.152000
     11 C13          8.4140     1.1490     0.7080 ca         1 J11       0.171000
     12 F13          9.1270     1.0940     1.8540 f          1 J11      -0.182000
     13 C14          8.7620     2.0750    -0.2860 ca         1 J11      -0.153000
     14 C15          8.0180     2.1330    -1.4770 ca         1 J11      -0.083000
     15 C16          6.9300     1.2620    -1.6670 ca         1 J11      -0.123000
     16 C9          -2.0360    -3.0220     0.5010 c5         1 J11       0.109800
     17 C21         -5.0890     0.7370    -0.4810 ca         1 J11       0.399300
     18 C10         -2.0080    -1.7640    -0.4350 c5         1 J11       0.174500
     19 C31         -5.1580     1.5830     0.6420 ca         1 J11      -0.213000
     20 C17         -3.3070    -1.0480     0.0160 c5         1 J11      -0.059700
     21 C41         -6.3940     2.1340     1.0190 ca         1 J11       0.000700
     22 C5          -4.2510    -2.2780     0.0280 c5         1 J11       0.148800
     23 C51         -7.5100     1.8050     0.2360 ca         1 J11      -0.231000
     24 C61         -7.3270     0.9580    -0.8590 ca         1 J11       0.596900
     25 N61         -8.3160     0.5720    -1.6670 nv         1 J11      -1.053900
     26 C71         -3.7660     0.1150    -0.9030 c3         1 J11      -0.121700
     27 C81         -6.5140     3.0530     2.2230 c3         1 J11      -0.053800
     28 H1           0.7110    -2.3460    -0.0050 h1         1 J11       0.033700
     29 H1A          0.4840    -1.6280    -1.6090 h1         1 J11       0.033700
     30 HN1         -0.8200    -0.7170     0.8940 hn         1 J11       0.417000
     31 H2           1.3970     0.5440    -0.7840 h1         1 J11       0.037200
     32 H2A          1.6040    -0.1450     0.8360 h1         1 J11       0.037200
     33 HN2          3.1260    -1.7600    -0.0850 hn         1 J11       0.402000
     34 H3           3.9080     0.9570    -0.9640 h1         1 J11       0.034700
     35 H3A          4.1550     0.2790     0.6570 h1         1 J11       0.034700
     36 H4           5.5620    -1.5470    -0.3360 hc         1 J11       0.056200
     37 H4A          5.3110    -0.8750    -1.9380 hc         1 J11       0.056200
     38 H6          -3.7240    -4.2540     0.3730 hn         1 J11       0.411000
     39 H12          7.0710    -0.4320     1.3030 ha         1 J11       0.129000
     40 H14          9.6040     2.7450    -0.1320 ha         1 J11       0.132000
     41 H15          8.2830     2.8510    -2.2510 ha         1 J11       0.117000
     42 H16          6.3570     1.3140    -2.5910 ha         1 J11       0.119000
     43 H9          -1.5420    -2.8120     1.4600 h1         1 J11       0.037700
     44 H2'A        -1.5160    -3.8750     0.0420 h1         1 J11       0.037700
     45 H10         -2.0470    -2.0440    -1.4990 h1         1 J11       0.061700
     46 H31         -4.2590     1.8040     1.2100 ha         1 J11       0.124000
     47 H11         -3.2040    -0.6420     1.0300 hc         1 J11       0.069700
     48 H5          -4.4710    -2.6030    -1.0000 h1         1 J11       0.045700
     49 H5'A        -5.2090    -2.0690     0.5250 h1         1 J11       0.045700
     50 H51         -8.4940     2.1990     0.4700 ha         1 J11       0.118000
     51 HN61        -8.0910    -0.2140    -2.2640 hn         1 J11       0.466000
     52 HN6A        -9.2630     0.6150    -1.3070 hn         1 J11       0.466000
     53 H71         -3.8310    -0.2400    -1.9390 hc         1 J11       0.059200
     54 H71A        -2.9970     0.8960    -0.9100 hc         1 J11       0.059200
     55 H81         -6.3280     4.0950     1.9380 hc         1 J11       0.046367
     56 H81A        -7.5160     3.0010     2.6670 hc         1 J11       0.046367
     57 H81B        -5.7930     2.7840     3.0030 hc         1 J11       0.046367
@<TRIPOS>BOND
     1     1     2 1   
     2     1     3 1   
     3     1    28 1   
     4     1    29 1   
     5     2    18 1   
     6     2    30 1   
     7     3     4 1   
     8     3    31 1   
     9     3    32 1   
    10     4     5 1   
    11     4    33 1   
    12     5     6 1   
    13     5    34 1   
    14     5    35 1   
    15     6     8 1   
    16     6    36 1   
    17     6    37 1   
    18     7    16 1   
    19     7    22 1   
    20     7    38 1   
    21     8    10 ar  
    22     8    15 ar  
    23     9    17 ar  
    24     9    24 ar  
    25    10    11 ar  
    26    10    39 1   
    27    11    12 1   
    28    11    13 ar  
    29    13    14 ar  
    30    13    40 1   
    31    14    15 ar  
    32    14    41 1   
    33    15    42 1   
    34    16    18 1   
    35    16    43 1   
    36    16    44 1   
    37    17    19 ar  
    38    17    26 1   
    39    18    20 1   
    40    18    45 1   
    41    19    21 ar  
    42    19    46 1   
    43    20    22 1   
    44    20    26 1   
    45    20    47 1   
    46    21    23 ar  
    47    21    27 1   
    48    22    48 1   
    49    22    49 1   
    50    23    24 ar  
    51    23    50 1   
    52    24    25 1   
    53    25    51 1   
    54    25    52 1   
    55    26    53 1   
    56    26    54 1   
    57    27    55 1   
    58    27    56 1   
    59    27    57 1   
@<TRIPOS>SUBSTRUCTURE
     1 J11         1 TEMP              0 ****  ****    0 ROOT
