@<TRIPOS>MOLECULE
J12
   86    89     1     0     0
SMALL
abcg2


@<TRIPOS>ATOM
      1 C1          -0.2300    -4.8630    -9.7940 c6         1 J12       0.360300
      2 O1          -0.9480    -3.6970    -9.4700 os         1 J12      -0.361100
      3 C7          -0.4300    -2.8120    -8.5860 ca         1 J12       0.149100
      4 C8          -0.7860    -1.4800    -8.7820 ca         1 J12      -0.145000
      5 C9          -0.2950    -0.5030    -7.9200 ca         1 J12       0.002000
      6 C10          0.5630    -0.8660    -6.8780 ca         1 J12      -0.147000
      7 C11          0.8830    -2.1960    -6.6830 ca         1 J12      -0.094600
      8 C12          0.3900    -3.1830    -7.5310 ca         1 J12      -0.188000
      9 C13          1.8170    -2.5800    -5.5790 c          1 J12       0.612700
     10 O17          2.8440    -1.9540    -5.3630 o          1 J12      -0.593100
     11 N18          1.4370    -3.6610    -4.8770 ns         1 J12      -0.510900
     12 C19          2.3010    -4.3610    -3.9500 c3         1 J12       0.106000
     13 C20          3.2450    -5.3340    -4.6520 c3         1 J12      -0.103400
     14 C21          2.4850    -6.3810    -5.4560 c3         1 J12       0.165800
     15 N22          3.3250    -7.2630    -6.2380 n3         1 J12      -0.715600
     16 C23          4.1490    -8.1300    -5.4160 c6         1 J12       0.160800
     17 C24          5.0310    -9.0130    -6.2770 c6         1 J12       0.164800
     18 N25          4.2350    -9.8100    -7.1870 n3         1 J12      -0.720600
     19 C26          3.4100    -8.9470    -8.0080 c6         1 J12       0.164800
     20 C27          2.5280    -8.0630    -7.1480 c6         1 J12       0.160800
     21 C28          5.0360   -10.7000    -8.0070 c3         1 J12       0.174800
     22 C35          5.7900   -11.7590    -7.2130 c3         1 J12      -0.114400
     23 C36          4.8860   -12.6160    -6.3290 c3         1 J12       0.141800
     24 N37          5.5600   -13.6670    -5.5800 n8         1 J12      -0.987200
     25 N40         -0.5980     0.8550    -8.0270 ns         1 J12      -0.150000
     26 C41         -1.3230     1.5090    -8.9700 c          1 J12       0.604100
     27 O44         -1.8350     0.9790    -9.9350 o          1 J12      -0.554100
     28 C2          -0.7830    -5.3700   -11.1310 c6         1 J12       0.113300
     29 O2          -0.8060    -4.3680   -12.1100 oh         1 J12      -0.699000
     30 C3          -2.2060    -5.8970   -10.9470 c6         1 J12       0.146300
     31 O3          -2.7000    -6.4720   -12.1270 oh         1 J12      -0.640000
     32 C4          -2.2380    -6.9490    -9.8360 c6         1 J12       0.152300
     33 O4          -1.6100    -8.1530   -10.2070 oh         1 J12      -0.696000
     34 C5          -1.6490    -6.3370    -8.5680 c6         1 J12       0.086300
     35 C6          -1.5570    -7.3280    -7.4200 c3         1 J12       0.169600
     36 O6          -1.0870    -6.7370    -6.2300 oh         1 J12      -0.715000
     37 O5          -0.3290    -5.8560    -8.8180 os         1 J12      -0.489000
     38 S           -0.5490     4.0440   -11.1110 ss         1 J12       0.206000
     39 C42         -1.4690     2.9960    -8.6830 c3         1 J12      -0.086100
     40 C43         -1.7550     3.7970    -9.9040 cc         1 J12      -0.206300
     41 C44         -2.9160     4.4190   -10.2500 cd         1 J12      -0.113000
     42 C45         -2.8350     5.1040   -11.4950 cd         1 J12      -0.132000
     43 C46         -1.6100     4.9850   -12.0750 cc         1 J12      -0.232000
     44 H1           0.8390    -4.6330    -9.8780 h2         1 J12       0.081700
     45 H8          -1.4270    -1.2290    -9.6110 ha         1 J12       0.166000
     46 H10          0.9620    -0.1090    -6.2140 ha         1 J12       0.129000
     47 H12          0.6620    -4.2170    -7.3810 ha         1 J12       0.133000
     48 H18          0.5190    -4.0390    -5.0450 hn         1 J12       0.322500
     49 H191         2.8740    -3.6380    -3.3700 h1         1 J12       0.056200
     50 H192         1.6590    -4.8960    -3.2490 h1         1 J12       0.056200
     51 H201         3.9180    -4.7850    -5.3160 hc         1 J12       0.060700
     52 H202         3.8650    -5.8050    -3.8860 hc         1 J12       0.060700
     53 H211         1.8190    -6.9470    -4.7780 h1         1 J12       0.026200
     54 H212         1.8420    -5.8520    -6.1690 h1         1 J12       0.026200
     55 H231         3.5320    -8.7640    -4.7550 h1         1 J12       0.038450
     56 H232         4.7940    -7.5270    -4.7750 h1         1 J12       0.038450
     57 H241         5.7600    -8.3830    -6.8170 h1         1 J12       0.037950
     58 H242         5.5990    -9.6680    -5.6150 h1         1 J12       0.037950
     59 H261         2.7750    -9.5630    -8.6490 h1         1 J12       0.037950
     60 H262         4.0190    -8.3090    -8.6720 h1         1 J12       0.037950
     61 H271         1.9550    -7.4000    -7.8030 h1         1 J12       0.038450
     62 H272         1.8020    -8.6960    -6.6060 h1         1 J12       0.038450
     63 H281         5.7520   -10.1360    -8.6310 h1         1 J12       0.031700
     64 H282         4.3570   -11.2060    -8.7010 h1         1 J12       0.031700
     65 H351         6.5740   -11.3040    -6.6000 hc         1 J12       0.036200
     66 H352         6.3090   -12.4040    -7.9290 hc         1 J12       0.036200
     67 H361         4.1140   -13.0780    -6.9520 h1         1 J12       0.061200
     68 H362         4.3560   -11.9760    -5.6200 h1         1 J12       0.061200
     69 H371         6.2490   -13.2510    -4.9650 hn         1 J12       0.386000
     70 H372         6.0870   -14.2500    -6.2200 hn         1 J12       0.386000
     71 H40         -0.2050     1.4290    -7.2960 hn         1 J12       0.153000
     72 H2          -0.1360    -6.2020   -11.4450 h1         1 J12       0.051700
     73 HO2          0.0730    -4.2830   -12.4930 ho         1 J12       0.513000
     74 H3          -2.8450    -5.0630   -10.6200 h1         1 J12       0.065700
     75 HO3         -2.6860    -5.7960   -12.8130 ho         1 J12       0.460000
     76 H4          -3.2830    -7.2050    -9.6350 h1         1 J12       0.097700
     77 HO4         -0.6590    -8.0180   -10.2700 ho         1 J12       0.502000
     78 H5          -2.2960    -5.5100    -8.2520 h1         1 J12       0.076700
     79 H61         -0.9470    -8.1910    -7.7070 h1         1 J12       0.058700
     80 H62         -2.5630    -7.7020    -7.2190 h1         1 J12       0.058700
     81 HO6         -0.1310    -6.6680    -6.2850 ho         1 J12       0.504000
     82 H421        -0.5850     3.3740    -8.1620 hc         1 J12       0.070200
     83 H422        -2.3030     3.1110    -7.9860 hc         1 J12       0.070200
     84 H44         -3.8020     4.3900    -9.6310 ha         1 J12       0.132000
     85 H45         -3.6510     5.6600   -11.9330 ha         1 J12       0.135000
     86 H46         -1.2730     5.4000   -13.0120 h4         1 J12       0.151000
@<TRIPOS>BOND
     1     1     2 1   
     2     1    28 1   
     3     1    37 1   
     4     1    44 1   
     5     2     3 1   
     6     3     4 ar  
     7     3     8 ar  
     8     4     5 ar  
     9     4    45 1   
    10     5     6 ar  
    11     5    25 1   
    12     6     7 ar  
    13     6    46 1   
    14     7     8 ar  
    15     7     9 1   
    16     8    47 1   
    17     9    10 2   
    18     9    11 1   
    19    11    12 1   
    20    11    48 1   
    21    12    13 1   
    22    12    49 1   
    23    12    50 1   
    24    13    14 1   
    25    13    51 1   
    26    13    52 1   
    27    14    15 1   
    28    14    53 1   
    29    14    54 1   
    30    15    16 1   
    31    15    20 1   
    32    16    17 1   
    33    16    55 1   
    34    16    56 1   
    35    17    18 1   
    36    17    57 1   
    37    17    58 1   
    38    18    19 1   
    39    18    21 1   
    40    19    20 1   
    41    19    59 1   
    42    19    60 1   
    43    20    61 1   
    44    20    62 1   
    45    21    22 1   
    46    21    63 1   
    47    21    64 1   
    48    22    23 1   
    49    22    65 1   
    50    22    66 1   
    51    23    24 1   
    52    23    67 1   
    53    23    68 1   
    54    24    69 1   
    55    24    70 1   
    56    25    26 1   
    57    25    71 1   
    58    26    27 2   
    59    26    39 1   
    60    28    29 1   
    61    28    30 1   
    62    28    72 1   
    63    29    73 1   
    64    30    31 1   
    65    30    32 1   
    66    30    74 1   
    67    31    75 1   
    68    32    33 1   
    69    32    34 1   
    70    32    76 1   
    71    33    77 1   
    72    34    35 1   
    73    34    37 1   
    74    34    78 1   
    75    35    36 1   
    76    35    79 1   
    77    35    80 1   
    78    36    81 1   
    79    38    40 1   
    80    38    43 1   
    81    39    40 1   
    82    39    82 1   
    83    39    83 1   
    84    40    41 2   
    85    41    42 1   
    86    41    84 1   
    87    42    43 2   
    88    42    85 1   
    89    43    86 1   
@<TRIPOS>SUBSTRUCTURE
     1 J12         1 TEMP              0 ****  ****    0 ROOT
