@<TRIPOS>MOLECULE
J12
   86    89     1     0     0
SMALL
No Charge or Current Charge


@<TRIPOS>ATOM
      1 C1          -0.2120    -4.5200   -10.9440 c6         1 J12       0.360300
      2 O1          -0.8610    -3.2930   -10.5470 os         1 J12      -0.361100
      3 C7          -0.3930    -2.5270    -9.4950 ca         1 J12       0.149100
      4 C8          -1.1820    -1.4400    -9.0980 ca         1 J12      -0.145000
      5 C9          -0.7830    -0.6120    -8.0290 ca         1 J12       0.002000
      6 C10          0.4240    -0.8940    -7.3660 ca         1 J12      -0.147000
      7 C11          1.2460    -1.9790    -7.7490 ca         1 J12      -0.094600
      8 C12          0.8230    -2.7940    -8.8290 ca         1 J12      -0.188000
      9 C13          2.5390    -2.2420    -6.9890 c          1 J12       0.612700
     10 O17          2.8670    -1.5880    -6.0070 o          1 J12      -0.593100
     11 N18          3.3290    -3.2710    -7.4550 ns         1 J12      -0.510900
     12 C19          4.5610    -3.7410    -6.8160 c3         1 J12       0.106000
     13 C20          4.7680    -5.2560    -7.0100 c3         1 J12      -0.103400
     14 C21          3.6520    -6.1170    -6.3740 c3         1 J12       0.165800
     15 N22          3.7510    -7.5660    -6.6630 n3         1 J12      -0.715600
     16 C23          4.9690    -8.2230    -6.0870 c6         1 J12       0.160800
     17 C24          5.0410    -9.7490    -6.4160 c6         1 J12       0.164800
     18 N25          3.8130   -10.4910    -5.9830 n3         1 J12      -0.720600
     19 C26          2.6030    -9.8330    -6.5650 c6         1 J12       0.164800
     20 C27          2.5300    -8.3100    -6.2270 c6         1 J12       0.160800
     21 C28          3.8540   -11.9450    -6.2740 c3         1 J12       0.174800
     22 C35          4.9620   -12.7340    -5.5390 c3         1 J12      -0.114400
     23 C36          4.8900   -12.5980    -4.0050 c3         1 J12       0.141800
     24 N37          5.9300   -13.4190    -3.3470 n8         1 J12      -0.987200
     25 N40         -1.5370     0.5030    -7.5710 ns         1 J12      -0.150000
     26 C41         -2.7300     1.0700    -8.0040 c          1 J12       0.604100
     27 O44         -3.3860     0.6580    -8.9530 o          1 J12      -0.554100
     28 C2          -0.8560    -5.1110   -12.2550 c6         1 J12       0.113300
     29 O2          -0.9260    -4.1560   -13.3470 oh         1 J12      -0.699000
     30 C3          -2.2850    -5.6620   -11.9500 c6         1 J12       0.146300
     31 O3          -2.8480    -6.2430   -13.1410 oh         1 J12      -0.640000
     32 C4          -2.2560    -6.6700   -10.7510 c6         1 J12       0.152300
     33 O4          -1.4610    -7.8380   -11.0640 oh         1 J12      -0.696000
     34 C5          -1.6430    -5.9170    -9.5360 c6         1 J12       0.086300
     35 C6          -1.5660    -6.7660    -8.2330 c3         1 J12       0.169600
     36 O6          -0.7210    -6.1180    -7.2750 oh         1 J12      -0.715000
     37 O5          -0.2910    -5.4850    -9.8600 os         1 J12      -0.489000
     38 S           -1.2310     4.2290    -8.0340 ss         1 J12       0.206000
     39 C42         -3.1710     2.3010    -7.1950 c3         1 J12      -0.086100
     40 C43         -2.8790     3.6160    -7.8820 cc         1 J12      -0.206300
     41 C44         -3.7750     4.4790    -8.4620 cd         1 J12      -0.113000
     42 C45         -3.1680     5.6310    -9.0300 cd         1 J12      -0.132000
     43 C46         -1.8040     5.6570    -8.8890 cc         1 J12      -0.232000
     44 H1           0.8460    -4.3070   -11.1570 h2         1 J12       0.081700
     45 H8          -2.1070    -1.2650    -9.6350 ha         1 J12       0.166000
     46 H10          0.7300    -0.2580    -6.5380 ha         1 J12       0.129000
     47 H12          1.4340    -3.6320    -9.1420 ha         1 J12       0.133000
     48 H18          3.0080    -3.7490    -8.2860 hn         1 J12       0.322500
     49 H191         5.4100    -3.1960    -7.2510 h1         1 J12       0.056200
     50 H192         4.5280    -3.5180    -5.7410 h1         1 J12       0.056200
     51 H201         4.8300    -5.4770    -8.0820 hc         1 J12       0.060700
     52 H202         5.7350    -5.5240    -6.5710 hc         1 J12       0.060700
     53 H211         3.6530    -5.9500    -5.2880 h1         1 J12       0.026200
     54 H212         2.6870    -5.7510    -6.7500 h1         1 J12       0.026200
     55 H231         4.9810    -8.1000    -4.9940 h1         1 J12       0.038450
     56 H232         5.8840    -7.7530    -6.4740 h1         1 J12       0.038450
     57 H241         5.1900    -9.8670    -7.5000 h1         1 J12       0.037950
     58 H242         5.9350   -10.1570    -5.9230 h1         1 J12       0.037950
     59 H261         1.6900   -10.3180    -6.1880 h1         1 J12       0.037950
     60 H262         2.6000    -9.9490    -7.6590 h1         1 J12       0.037950
     61 H271         1.6360    -7.8900    -6.7110 h1         1 J12       0.038450
     62 H272         2.3880    -8.2000    -5.1410 h1         1 J12       0.038450
     63 H281         3.9740   -12.1040    -7.3550 h1         1 J12       0.031700
     64 H282         2.8910   -12.3940    -5.9950 h1         1 J12       0.031700
     65 H351         5.9470   -12.4120    -5.8970 hc         1 J12       0.036200
     66 H352         4.8640   -13.7920    -5.8120 hc         1 J12       0.036200
     67 H361         3.9000   -12.9220    -3.6530 h1         1 J12       0.061200
     68 H362         5.0280   -11.5450    -3.7180 h1         1 J12       0.061200
     69 H371         6.8500   -13.1430    -3.7120 hn         1 J12       0.386000
     70 H372         5.8300   -14.3930    -3.6560 hn         1 J12       0.386000
     71 H40         -1.1210     0.9750    -6.7790 hn         1 J12       0.153000
     72 H2          -0.2250    -5.9570   -12.5630 h1         1 J12       0.051700
     73 HO2         -0.0270    -3.7670   -13.4660 ho         1 J12       0.513000
     74 H3          -2.9070    -4.8060   -11.6430 h1         1 J12       0.065700
     75 HO3         -2.5180    -5.6700   -13.8710 ho         1 J12       0.460000
     76 H4          -3.2920    -6.9580   -10.5110 h1         1 J12       0.097700
     77 HO4         -0.5270    -7.5820   -10.8860 ho         1 J12       0.502000
     78 H5          -2.2580    -5.0320    -9.3100 h1         1 J12       0.076700
     79 H61         -1.1660    -7.7610    -8.4730 h1         1 J12       0.058700
     80 H62         -2.5810    -6.9040    -7.8340 h1         1 J12       0.058700
     81 HO6         -0.0840    -5.6130    -7.8350 ho         1 J12       0.504000
     82 H421        -2.6540     2.3040    -6.2270 hc         1 J12       0.070200
     83 H422        -4.2510     2.2240    -7.0220 hc         1 J12       0.070200
     84 H44         -4.8460     4.2990    -8.4870 ha         1 J12       0.132000
     85 H45         -3.7310     6.4150    -9.5290 ha         1 J12       0.135000
     86 H46         -1.0940     6.4040    -9.2210 h4         1 J12       0.151000
@<TRIPOS>BOND
     1     1     2 1   
     2     1    28 1   
     3     1    37 1   
     4     1    44 1   
     5     2     3 1   
     6     3     4 ar  
     7     3     8 ar  
     8     4     5 ar  
     9     4    45 1   
    10     5     6 ar  
    11     5    25 1   
    12     6     7 ar  
    13     6    46 1   
    14     7     8 ar  
    15     7     9 1   
    16     8    47 1   
    17     9    10 2   
    18     9    11 1   
    19    11    12 1   
    20    11    48 1   
    21    12    13 1   
    22    12    49 1   
    23    12    50 1   
    24    13    14 1   
    25    13    51 1   
    26    13    52 1   
    27    14    15 1   
    28    14    53 1   
    29    14    54 1   
    30    15    16 1   
    31    15    20 1   
    32    16    17 1   
    33    16    55 1   
    34    16    56 1   
    35    17    18 1   
    36    17    57 1   
    37    17    58 1   
    38    18    19 1   
    39    18    21 1   
    40    19    20 1   
    41    19    59 1   
    42    19    60 1   
    43    20    61 1   
    44    20    62 1   
    45    21    22 1   
    46    21    63 1   
    47    21    64 1   
    48    22    23 1   
    49    22    65 1   
    50    22    66 1   
    51    23    24 1   
    52    23    67 1   
    53    23    68 1   
    54    24    69 1   
    55    24    70 1   
    56    25    26 1   
    57    25    71 1   
    58    26    27 2   
    59    26    39 1   
    60    28    29 1   
    61    28    30 1   
    62    28    72 1   
    63    29    73 1   
    64    30    31 1   
    65    30    32 1   
    66    30    74 1   
    67    31    75 1   
    68    32    33 1   
    69    32    34 1   
    70    32    76 1   
    71    33    77 1   
    72    34    35 1   
    73    34    37 1   
    74    34    78 1   
    75    35    36 1   
    76    35    79 1   
    77    35    80 1   
    78    36    81 1   
    79    38    40 1   
    80    38    43 1   
    81    39    40 1   
    82    39    82 1   
    83    39    83 1   
    84    40    41 2   
    85    41    42 1   
    86    41    84 1   
    87    42    43 2   
    88    42    85 1   
    89    43    86 1   
@<TRIPOS>SUBSTRUCTURE
     1 J12         1 TEMP              0 ****  ****    0 ROOT
