@<TRIPOS>MOLECULE
J13
   51    51     1     0     0
SMALL
No Charge or Current Charge


@<TRIPOS>ATOM
      1 C1          -2.8020     0.2330     1.0380 c6         1 J13       0.129700
      2 O1          -0.7800     2.2330     1.6230 o          1 J13      -0.644100
      3 C2          -3.8510     1.4020     0.9940 c6         1 J13       0.159300
      4 C3          -4.4770     1.5600    -0.4280 c6         1 J13       0.134300
      5 C4          -5.1120     0.2190    -0.8970 c6         1 J13       0.087300
      6 C5          -4.0510    -0.9190    -0.9030 c6         1 J13       0.176300
      7 C6          -3.4190    -1.1020     0.5030 c6         1 J13      -0.210700
      8 N7          -1.5770     0.5690     0.2920 ns         1 J13      -0.492900
      9 C9          -0.6310     1.4930     0.6620 c          1 J13       0.593100
     10 C10          0.6040     1.5520    -0.2420 c3         1 J13      -0.158400
     11 C11          1.8400     0.9210     0.4430 c3         1 J13      -0.064400
     12 C12          3.1060     0.9610    -0.4410 c3         1 J13      -0.076400
     13 C13          4.3400     0.3330     0.2420 c3         1 J13      -0.074400
     14 C14          5.6060     0.3750    -0.6410 c3         1 J13      -0.074400
     15 C15          6.8410    -0.2530     0.0420 c3         1 J13      -0.098400
     16 C16          8.1050    -0.2110    -0.8430 c3         1 J13       0.157800
     17 N17          9.2460    -0.8060    -0.1330 n2         1 J13      -0.440200
     18 N18          9.4690    -2.0080    -0.3510 n1         1 J13       0.231000
     19 N19          9.6530    -3.1280    -0.4120 n1         1 J13      -0.091000
     20 C20         -2.4060    -2.2600     0.5280 c          1 J13       0.734000
     21 O21         -2.6010    -3.1760     1.3150 o          1 J13      -0.725500
     22 O22         -1.4470    -2.2130    -0.2310 o          1 J13      -0.725500
     23 O23         -4.6980    -2.1170    -1.3390 oh         1 J13      -0.698000
     24 O24         -5.7050     0.3760    -2.2000 oh         1 J13      -0.751000
     25 O25         -5.4890     2.5950    -0.4210 oh         1 J13      -0.744000
     26 H1          -2.5080     0.0810     2.0880 h1         1 J13       0.082700
     27 H12         -3.3270     2.3400     1.2320 h1         1 J13       0.058700
     28 H3          -3.6720     1.8250    -1.1310 h1         1 J13       0.055700
     29 H4          -5.8960    -0.0550    -0.1740 h1         1 J13       0.053700
     30 H5          -3.2580    -0.6470    -1.6160 h1         1 J13       0.049700
     31 H6          -4.2180    -1.3810     1.2030 hc         1 J13       0.075700
     32 HN7         -1.3040    -0.0650    -0.4530 hn         1 J13       0.362500
     33 H110         0.4120     1.0100    -1.1760 hc         1 J13       0.055700
     34 H210         0.8280     2.6020    -0.4630 hc         1 J13       0.055700
     35 H111         2.0400     1.4490     1.3840 hc         1 J13       0.051700
     36 H211         1.6140    -0.1210     0.7030 hc         1 J13       0.051700
     37 H112         2.9060     0.4310    -1.3810 hc         1 J13       0.034700
     38 H212         3.3300     2.0030    -0.7020 hc         1 J13       0.034700
     39 H113         4.5400     0.8630     1.1820 hc         1 J13       0.040200
     40 H213         4.1160    -0.7090     0.5030 hc         1 J13       0.040200
     41 H114         5.4060    -0.1560    -1.5810 hc         1 J13       0.038200
     42 H214         5.8290     1.4170    -0.9030 hc         1 J13       0.038200
     43 H115         7.0420     0.2780     0.9810 hc         1 J13       0.047700
     44 H215         6.6170    -1.2950     0.3030 hc         1 J13       0.047700
     45 H116         7.9030    -0.7390    -1.7860 h1         1 J13       0.058700
     46 H216         8.3260     0.8340    -1.0980 h1         1 J13       0.058700
     47 HO23        -5.3580    -1.7890    -1.9950 ho         1 J13       0.479000
     48 HO24        -6.1100     1.2780    -2.1750 ho         1 J13       0.499000
     49 HO25        -5.0210     3.4630    -0.4770 ho         1 J13       0.510000
     50 O2          -4.9030     1.2070     1.9560 oh         1 J13      -0.718000
     51 HO2         -5.6610     1.7210     1.5870 ho         1 J13       0.502000
@<TRIPOS>BOND
     1     1     3 1   
     2     1     7 1   
     3     1     8 1   
     4     1    26 1   
     5     2     9 2   
     6     3     4 1   
     7     3    27 1   
     8     3    50 1   
     9     4     5 1   
    10     4    25 1   
    11     4    28 1   
    12     5     6 1   
    13     5    24 1   
    14     5    29 1   
    15     6     7 1   
    16     6    23 1   
    17     6    30 1   
    18     7    20 1   
    19     7    31 1   
    20     8     9 1   
    21     8    32 1   
    22     9    10 1   
    23    10    11 1   
    24    10    33 1   
    25    10    34 1   
    26    11    12 1   
    27    11    35 1   
    28    11    36 1   
    29    12    13 1   
    30    12    37 1   
    31    12    38 1   
    32    13    14 1   
    33    13    39 1   
    34    13    40 1   
    35    14    15 1   
    36    14    41 1   
    37    14    42 1   
    38    15    16 1   
    39    15    43 1   
    40    15    44 1   
    41    16    17 1   
    42    16    45 1   
    43    16    46 1   
    44    17    18 1   
    45    18    19 3   
    46    20    21 1   
    47    20    22 1   
    48    23    47 1   
    49    24    48 1   
    50    25    49 1   
    51    50    51 1   
@<TRIPOS>SUBSTRUCTURE
     1 J13         1 TEMP              0 ****  ****    0 ROOT
