@<TRIPOS>MOLECULE
J13
   51    51     1     0     0
SMALL
bcc


@<TRIPOS>ATOM
      1 C1          -2.9210    -0.0010     0.9580 c6         1 J13       0.129700
      2 O1          -0.4730     1.1220     1.7850 o          1 J13      -0.644100
      3 C2          -3.5640     1.3830     1.1230 c6         1 J13       0.136100
      4 C3          -4.1340     1.8850    -0.1980 c6         1 J13       0.111100
      5 C4          -5.1430     0.8970    -0.7650 c6         1 J13       0.064100
      6 C5          -4.4730    -0.4530    -0.9960 c6         1 J13       0.153100
      7 C6          -3.8920    -1.0000     0.3020 c6         1 J13      -0.210700
      8 N7          -1.6940     0.0900     0.1880 ns         1 J13      -0.559900
      9 C9          -0.5490     0.5930     0.6840 c          1 J13       0.660100
     10 C10          0.6430     0.5000    -0.2480 c3         1 J13      -0.158400
     11 C11          1.9730     0.3810     0.4830 c3         1 J13      -0.064400
     12 C12          3.1580     0.3700    -0.4740 c3         1 J13      -0.076400
     13 C13          4.4960     0.2570     0.2450 c3         1 J13      -0.074400
     14 C14          5.6850     0.2620    -0.7070 c3         1 J13      -0.074400
     15 C15          7.0220     0.1530     0.0170 c3         1 J13      -0.098400
     16 C16          8.1870     0.1670    -0.9610 c3         1 J13       0.157800
     17 N17          9.4970     0.1300    -0.2960 n2         1 J13      -0.440200
     18 N18          9.8370    -0.9390     0.1730 n1         1 J13       0.231000
     19 N19         10.2420    -1.8820     0.6350 n1         1 J13      -0.091000
     20 C20         -3.2100    -2.3680     0.0740 c          1 J13       0.944600
     21 O21         -3.4930    -3.2870     0.8590 o          1 J13      -0.830800
     22 O22         -2.4000    -2.4300    -0.8810 o          1 J13      -0.830800
     23 O23         -5.3970    -1.4080    -1.4740 oh         1 J13      -0.575800
     24 O24         -5.6390     1.4420    -1.9770 oh         1 J13      -0.628800
     25 O25         -4.7180     3.1460     0.0430 oh         1 J13      -0.621800
     26 H1          -2.6820    -0.3700     1.9630 h1         1 J13       0.082700
     27 H12         -2.7920     2.0880     1.4550 h1         1 J13       0.058700
     28 H3          -3.3000     1.9770    -0.9120 h1         1 J13       0.055700
     29 H4          -5.9610     0.7710    -0.0440 h1         1 J13       0.053700
     30 H5          -3.6660    -0.3070    -1.7290 h1         1 J13       0.049700
     31 H6          -4.7130    -1.1350     1.0120 hc         1 J13       0.075700
     32 HN7         -1.6320    -0.5410    -0.6030 hn         1 J13       0.362500
     33 H110         0.5190    -0.3330    -0.9450 hc         1 J13       0.055700
     34 H210         0.6430     1.4070    -0.8640 hc         1 J13       0.055700
     35 H111         2.0830     1.2120     1.1840 hc         1 J13       0.051700
     36 H211         1.9820    -0.5330     1.0850 hc         1 J13       0.051700
     37 H112         3.0520    -0.4610    -1.1800 hc         1 J13       0.034700
     38 H212         3.1450     1.2850    -1.0770 hc         1 J13       0.034700
     39 H113         4.5980     1.0840     0.9560 hc         1 J13       0.040200
     40 H213         4.5120    -0.6610     0.8420 hc         1 J13       0.040200
     41 H114         5.5840    -0.5650    -1.4170 hc         1 J13       0.038200
     42 H214         5.6680     1.1810    -1.3040 hc         1 J13       0.038200
     43 H115         7.1320     0.9800     0.7230 hc         1 J13       0.047700
     44 H215         7.0430    -0.7700     0.6060 hc         1 J13       0.047700
     45 H116         8.0970    -0.6580    -1.6740 h1         1 J13       0.058700
     46 H216         8.1830     1.0920    -1.5350 h1         1 J13       0.058700
     47 HO23        -5.6410    -1.1710    -2.3730 ho         1 J13       0.380000
     48 HO24        -6.5600     1.1870    -2.0800 ho         1 J13       0.400000
     49 HO25        -5.2740     3.3600    -0.7160 ho         1 J13       0.411000
     50 O2          -4.5660     1.2590     2.1080 oh         1 J13      -0.595800
     51 HO2         -5.0560     2.0880     2.1350 ho         1 J13       0.403000
@<TRIPOS>BOND
     1     1     3 1   
     2     1     7 1   
     3     1     8 1   
     4     1    26 1   
     5     2     9 2   
     6     3     4 1   
     7     3    27 1   
     8     3    50 1   
     9     4     5 1   
    10     4    25 1   
    11     4    28 1   
    12     5     6 1   
    13     5    24 1   
    14     5    29 1   
    15     6     7 1   
    16     6    23 1   
    17     6    30 1   
    18     7    20 1   
    19     7    31 1   
    20     8     9 1   
    21     8    32 1   
    22     9    10 1   
    23    10    11 1   
    24    10    33 1   
    25    10    34 1   
    26    11    12 1   
    27    11    35 1   
    28    11    36 1   
    29    12    13 1   
    30    12    37 1   
    31    12    38 1   
    32    13    14 1   
    33    13    39 1   
    34    13    40 1   
    35    14    15 1   
    36    14    41 1   
    37    14    42 1   
    38    15    16 1   
    39    15    43 1   
    40    15    44 1   
    41    16    17 1   
    42    16    45 1   
    43    16    46 1   
    44    17    18 1   
    45    18    19 3   
    46    20    21 1   
    47    20    22 1   
    48    23    47 1   
    49    24    48 1   
    50    25    49 1   
    51    50    51 1   
@<TRIPOS>SUBSTRUCTURE
     1 J13         1 TEMP              0 ****  ****    0 ROOT
