@<TRIPOS>MOLECULE
J14
   57    59     1     0     0
SMALL
No Charge or Current Charge


@<TRIPOS>ATOM
      1 C1           0.4910     1.4940    -0.6400 c3         1 J14       0.152800
      2 N1          -0.8080     1.0090    -0.1160 n7         1 J14      -0.859400
      3 C2           1.6820     0.6860    -0.0540 c3         1 J14       0.157800
      4 N2           2.9800     1.1510    -0.5990 n7         1 J14      -0.866400
      5 C3           4.1670     0.4540    -0.0660 c3         1 J14       0.163800
      6 C4           5.4580     1.0360    -0.6750 c3         1 J14      -0.038100
      7 N3          -3.5130     3.2780     0.5960 n7         1 J14      -0.824400
      8 C11          6.7040     0.3420    -0.1410 ca         1 J14      -0.051300
      9 N11         -4.8950    -1.7800     0.6430 nb         1 J14      -0.753000
     10 C12          7.2440    -0.7710    -0.8150 ca         1 J14      -0.151000
     11 C13          8.3890    -1.4100    -0.3150 ca         1 J14       0.171000
     12 F13          8.9020    -2.4760    -0.9670 f          1 J14      -0.182000
     13 C14          9.0050    -0.9490     0.8590 ca         1 J14      -0.153000
     14 C15          8.4710     0.1600     1.5380 ca         1 J14      -0.083000
     15 C16          7.3230     0.8020     1.0390 ca         1 J14      -0.123000
     16 C9          -2.1190     3.1580     0.0700 c5         1 J14       0.139800
     17 C21         -5.0030    -0.8670    -0.3480 ca         1 J14       0.397300
     18 C10         -2.0120     1.7380    -0.5990 c5         1 J14       0.138500
     19 C31         -6.2410    -0.4950    -0.9070 ca         1 J14      -0.215000
     20 C17         -3.2700     1.0180    -0.0430 c5         1 J14      -0.106700
     21 C41         -7.4230    -1.0820    -0.4250 ca         1 J14       0.002700
     22 C5          -4.2640     2.2040    -0.0920 c5         1 J14       0.138800
     23 C51         -7.2980    -2.0280     0.6030 ca         1 J14      -0.232000
     24 C61         -6.0200    -2.3260     1.0790 ca         1 J14       0.599900
     25 N61         -5.7830    -3.2020     2.0570 nv         1 J14      -1.054900
     26 C71         -3.7060    -0.2400    -0.8440 c3         1 J14      -0.113700
     27 C81         -8.7790    -0.7090    -0.9980 c3         1 J14      -0.053800
     28 H1           0.5100     1.4080    -1.7350 h1         1 J14       0.035700
     29 H1A          0.6330     2.5550    -0.3900 h1         1 J14       0.035700
     30 HN1         -0.9010     0.0210    -0.3790 hn         1 J14       0.410000
     31 H2           1.6720     0.7930     1.0400 h1         1 J14       0.036700
     32 H2A          1.5360    -0.3780    -0.2840 h1         1 J14       0.036700
     33 HN2          2.9630     1.0200    -1.6180 hn         1 J14       0.404000
     34 H3           4.2120     0.5600     1.0270 h1         1 J14       0.034200
     35 H3A          4.1170    -0.6200    -0.2950 h1         1 J14       0.034200
     36 H4           5.4150     0.9440    -1.7680 hc         1 J14       0.056700
     37 H4A          5.5040     2.1100    -0.4580 hc         1 J14       0.056700
     38 H6          -3.4860     3.0390     1.5950 hn         1 J14       0.403000
     39 H12          6.7780    -1.1430    -1.7240 ha         1 J14       0.129000
     40 H14          9.8920    -1.4490     1.2390 ha         1 J14       0.132000
     41 H15          8.9440     0.5210     2.4490 ha         1 J14       0.117000
     42 H16          6.9140     1.6580     1.5710 ha         1 J14       0.119000
     43 H9          -1.9150     3.9370    -0.6780 h1         1 J14       0.057700
     44 H2'A        -1.3920     3.2900     0.8830 h1         1 J14       0.057700
     45 H10         -2.0410     1.8060    -1.6960 h1         1 J14       0.026700
     46 H31         -6.2780     0.2430    -1.7040 ha         1 J14       0.122000
     47 H11         -3.1190     0.6990     0.9960 hc         1 J14       0.077700
     48 H5          -5.2110     1.9790     0.4200 h1         1 J14       0.056200
     49 H5'A        -4.4990     2.4880    -1.1290 h1         1 J14       0.056200
     50 H51         -8.1710    -2.5220     1.0180 ha         1 J14       0.119000
     51 HN61        -4.8550    -3.1440     2.4580 hn         1 J14       0.468500
     52 HN6A        -6.5420    -3.4120     2.6950 hn         1 J14       0.468500
     53 H71         -2.9040    -0.9880    -0.8120 hc         1 J14       0.053200
     54 H71A        -3.8150     0.0220    -1.9030 hc         1 J14       0.053200
     55 H81         -9.0170    -1.3280    -1.8720 hc         1 J14       0.047033
     56 H81A        -9.5780    -0.8500    -0.2600 hc         1 J14       0.047033
     57 H81B        -8.8030     0.3410    -1.3130 hc         1 J14       0.047033
@<TRIPOS>BOND
     1     1     2 1   
     2     1     3 1   
     3     1    28 1   
     4     1    29 1   
     5     2    18 1   
     6     2    30 1   
     7     3     4 1   
     8     3    31 1   
     9     3    32 1   
    10     4     5 1   
    11     4    33 1   
    12     5     6 1   
    13     5    34 1   
    14     5    35 1   
    15     6     8 1   
    16     6    36 1   
    17     6    37 1   
    18     7    16 1   
    19     7    22 1   
    20     7    38 1   
    21     8    10 ar  
    22     8    15 ar  
    23     9    17 ar  
    24     9    24 ar  
    25    10    11 ar  
    26    10    39 1   
    27    11    12 1   
    28    11    13 ar  
    29    13    14 ar  
    30    13    40 1   
    31    14    15 ar  
    32    14    41 1   
    33    15    42 1   
    34    16    18 1   
    35    16    43 1   
    36    16    44 1   
    37    17    19 ar  
    38    17    26 1   
    39    18    20 1   
    40    18    45 1   
    41    19    21 ar  
    42    19    46 1   
    43    20    22 1   
    44    20    26 1   
    45    20    47 1   
    46    21    23 ar  
    47    21    27 1   
    48    22    48 1   
    49    22    49 1   
    50    23    24 ar  
    51    23    50 1   
    52    24    25 1   
    53    25    51 1   
    54    25    52 1   
    55    26    53 1   
    56    26    54 1   
    57    27    55 1   
    58    27    56 1   
    59    27    57 1   
@<TRIPOS>SUBSTRUCTURE
     1 J14         1 TEMP              0 ****  ****    0 ROOT
