@<TRIPOS>MOLECULE
J14
   57    59     1     0     0
SMALL
bcc


@<TRIPOS>ATOM
      1 C1           0.5100     1.2900    -0.5830 c3         1 J14       0.152800
      2 N1          -0.7110     0.8500     0.0640 n7         1 J14      -0.804200
      3 C2           1.7230     0.5790    -0.0060 c3         1 J14       0.157800
      4 N2           2.9350     1.0390    -0.6540 n7         1 J14      -0.811200
      5 C3           4.1350     0.4290    -0.1230 c3         1 J14       0.163800
      6 C4           5.3790     1.0070    -0.7950 c3         1 J14      -0.038100
      7 N3          -3.2390     3.0540     0.8960 n7         1 J14      -0.769200
      8 C11          6.6380     0.4140    -0.2300 ca         1 J14      -0.051300
      9 N11         -4.9550    -1.5840     0.5530 nb         1 J14      -0.753000
     10 C12          7.2100    -0.7140    -0.8110 ca         1 J14      -0.169000
     11 C13          8.3470    -1.2620    -0.2490 ca         1 J14       0.135900
     12 F13          8.8920    -2.3470    -0.8270 f          1 J14      -0.146900
     13 C14          8.9470    -0.7370     0.8780 ca         1 J14      -0.171000
     14 C15          8.3700     0.3880     1.4560 ca         1 J14      -0.101000
     15 C16          7.2290     0.9580     0.9100 ca         1 J14      -0.141000
     16 C9          -2.0250     2.9770     0.0850 c5         1 J14       0.139800
     17 C21         -5.0450    -0.7620    -0.4940 ca         1 J14       0.462600
     18 C10         -1.8930     1.5260    -0.4470 c5         1 J14       0.138500
     19 C31         -6.2530    -0.4350    -1.0870 ca         1 J14      -0.298300
     20 C17         -3.1850     0.8390     0.0250 c5         1 J14      -0.106700
     21 C41         -7.4340    -0.9770    -0.5700 ca         1 J14       0.002700
     22 C5          -4.1040     2.0190     0.3480 c5         1 J14       0.138800
     23 C51         -7.3390    -1.8220     0.5170 ca         1 J14      -0.315300
     24 C61         -6.0710    -2.1070     1.0510 ca         1 J14       0.665200
     25 N61         -5.9360    -2.9820     2.0910 nv         1 J14      -0.944500
     26 C71         -3.7570    -0.1590    -0.9780 c3         1 J14      -0.113700
     27 C81         -8.7590    -0.6630    -1.1950 c3         1 J14      -0.053800
     28 H1           0.4820     1.1410    -1.6760 h1         1 J14       0.035700
     29 H1A          0.6280     2.3650    -0.4250 h1         1 J14       0.035700
     30 HN1         -0.8150    -0.1460    -0.0960 hn         1 J14       0.354800
     31 H2           1.7940     0.8030     1.0620 h1         1 J14       0.036700
     32 H2A          1.5840    -0.5120    -0.0860 h1         1 J14       0.036700
     33 HN2          2.8750     0.8320    -1.6450 hn         1 J14       0.348800
     34 H3           4.1800     0.6330     0.9510 h1         1 J14       0.034200
     35 H3A          4.1430    -0.6680    -0.2260 h1         1 J14       0.034200
     36 H4           5.3280     0.8200    -1.8710 hc         1 J14       0.056700
     37 H4A          5.3800     2.0910    -0.6590 hc         1 J14       0.056700
     38 H6          -3.0040     2.7930     1.8470 hn         1 J14       0.347800
     39 H12          6.7750    -1.1610    -1.6970 ha         1 J14       0.147000
     40 H14          9.8390    -1.1880     1.2920 ha         1 J14       0.150000
     41 H15          8.8230     0.8220     2.3370 ha         1 J14       0.135000
     42 H16          6.7950     1.8360     1.3710 ha         1 J14       0.137000
     43 H9          -2.1080     3.6710    -0.7550 h1         1 J14       0.057700
     44 H2'A        -1.1570     3.2820     0.6710 h1         1 J14       0.057700
     45 H10         -1.8840     1.5500    -1.5510 h1         1 J14       0.026700
     46 H31         -6.2820     0.2430    -1.9310 ha         1 J14       0.140000
     47 H11         -2.9630     0.3160     0.9620 hc         1 J14       0.077700
     48 H5          -4.9050     1.7690     1.0450 h1         1 J14       0.056200
     49 H5'A        -4.5770     2.3910    -0.5700 h1         1 J14       0.056200
     50 H51         -8.2250    -2.2640     0.9580 ha         1 J14       0.137000
     51 HN61        -5.0650    -2.9390     2.5960 hn         1 J14       0.413300
     52 HN6A        -6.7400    -3.1380     2.6750 hn         1 J14       0.413300
     53 H71         -3.0300    -0.9570    -1.1560 hc         1 J14       0.053200
     54 H71A        -3.9200     0.3460    -1.9330 hc         1 J14       0.053200
     55 H81         -8.9520    -1.3330    -2.0340 hc         1 J14       0.047033
     56 H81A        -9.5770    -0.7810    -0.4860 hc         1 J14       0.047033
     57 H81B        -8.7840     0.3550    -1.5840 hc         1 J14       0.047033
@<TRIPOS>BOND
     1     1     2 1   
     2     1     3 1   
     3     1    28 1   
     4     1    29 1   
     5     2    18 1   
     6     2    30 1   
     7     3     4 1   
     8     3    31 1   
     9     3    32 1   
    10     4     5 1   
    11     4    33 1   
    12     5     6 1   
    13     5    34 1   
    14     5    35 1   
    15     6     8 1   
    16     6    36 1   
    17     6    37 1   
    18     7    16 1   
    19     7    22 1   
    20     7    38 1   
    21     8    10 ar  
    22     8    15 ar  
    23     9    17 ar  
    24     9    24 ar  
    25    10    11 ar  
    26    10    39 1   
    27    11    12 1   
    28    11    13 ar  
    29    13    14 ar  
    30    13    40 1   
    31    14    15 ar  
    32    14    41 1   
    33    15    42 1   
    34    16    18 1   
    35    16    43 1   
    36    16    44 1   
    37    17    19 ar  
    38    17    26 1   
    39    18    20 1   
    40    18    45 1   
    41    19    21 ar  
    42    19    46 1   
    43    20    22 1   
    44    20    26 1   
    45    20    47 1   
    46    21    23 ar  
    47    21    27 1   
    48    22    48 1   
    49    22    49 1   
    50    23    24 ar  
    51    23    50 1   
    52    24    25 1   
    53    25    51 1   
    54    25    52 1   
    55    26    53 1   
    56    26    54 1   
    57    27    55 1   
    58    27    56 1   
    59    27    57 1   
@<TRIPOS>SUBSTRUCTURE
     1 J14         1 TEMP              0 ****  ****    0 ROOT
