@<TRIPOS>MOLECULE
J15
   74    76     1     0     0
SMALL
No Charge or Current Charge


@<TRIPOS>ATOM
      1 C1           5.7100     0.6620    -0.7890 c6         1 J15       0.363300
      2 O1           5.1870    -0.6740    -0.6100 os         1 J15      -0.366100
      3 C7           3.8280    -0.9290    -0.5630 ca         1 J15       0.133100
      4 C8           3.4340    -2.2500    -0.3060 ca         1 J15      -0.074000
      5 C9           2.0660    -2.5990    -0.2470 ca         1 J15      -0.154200
      6 N14          1.6580    -4.0180     0.0310 no         1 J15       0.694200
      7 O15          2.5490    -4.8600     0.2040 o          1 J15      -0.396000
      8 O16          0.4490    -4.2830     0.0740 o          1 J15      -0.396000
      9 C10          1.0900    -1.5960    -0.4530 ca         1 J15      -0.069000
     10 C11          1.4680    -0.2550    -0.7170 ca         1 J15      -0.125600
     11 C12          2.8450     0.0630    -0.7700 ca         1 J15      -0.093000
     12 C13          0.4470     0.8450    -0.9470 c          1 J15       0.612700
     13 N18         -0.8840     0.4970    -0.8460 ns         1 J15      -0.496900
     14 C19         -1.9960     1.4290    -1.0420 c3         1 J15       0.099000
     15 C20         -3.3580     0.7400    -0.8420 c3         1 J15      -0.096400
     16 C21         -4.5430     1.7090    -1.0470 c3         1 J15       0.171800
     17 N22         -5.8790     1.0660    -1.0180 n3         1 J15      -0.717600
     18 C23         -6.9650     2.0080    -1.4310 c6         1 J15       0.163800
     19 C24         -8.3720     1.3300    -1.4470 c6         1 J15       0.164300
     20 N25         -8.7280     0.7170    -0.1310 n3         1 J15      -0.719600
     21 C28        -10.0830     0.1110    -0.1460 c3         1 J15       0.169800
     22 C35        -10.6030    -0.3530     1.2330 c3         1 J15      -0.081400
     23 C36        -12.0690    -0.8240     1.1760 c3         1 J15       0.148800
     24 N37        -12.5500    -1.2720     2.4970 n8         1 J15      -0.995200
     25 C26         -7.6430    -0.2260     0.2910 c6         1 J15       0.164300
     26 C27         -6.2310     0.4450     0.2990 c6         1 J15       0.163800
     27 O17          0.7750     1.9920    -1.2170 o          1 J15      -0.593100
     28 C2           7.2700     0.6430    -0.9820 c6         1 J15       0.115300
     29 O2           7.7090    -0.2230    -2.0640 oh         1 J15      -0.707000
     30 C3           7.9680     0.2070     0.3450 c6         1 J15       0.139300
     31 O3           9.3990     0.2870     0.1910 oh         1 J15      -0.671000
     32 C4           7.5020     1.0850     1.5450 c6         1 J15       0.147300
     33 O4           8.0280     2.4190     1.3870 oh         1 J15      -0.716000
     34 C5           5.9400     1.0540     1.6110 c6         1 J15       0.168300
     35 C6           5.3700     1.9490     2.7600 c3         1 J15       0.171600
     36 O6           3.9320     1.8870     2.8720 oh         1 J15      -0.717000
     37 O5           5.3580     1.4850     0.3490 os         1 J15      -0.442000
     38 H1           5.2640     1.0980    -1.6960 h2         1 J15       0.085700
     39 H8           4.2080    -2.9990    -0.1540 ha         1 J15       0.166000
     40 H10          0.0380    -1.8690    -0.4100 ha         1 J15       0.153000
     41 H12          3.1360     1.0910    -0.9690 ha         1 J15       0.164000
     42 H18         -1.0960    -0.4640    -0.6180 hn         1 J15       0.316500
     43 H191        -1.9370     1.8410    -2.0580 h1         1 J15       0.053700
     44 H192        -1.8940     2.2570    -0.3270 h1         1 J15       0.053700
     45 H201        -3.3930     0.3180     0.1690 hc         1 J15       0.053700
     46 H202        -3.4490    -0.0930    -1.5500 hc         1 J15       0.053700
     47 H211        -4.4040     2.1970    -2.0210 h1         1 J15       0.032700
     48 H212        -4.4900     2.4980    -0.2840 h1         1 J15       0.032700
     49 H231        -6.7590     2.4070    -2.4350 h1         1 J15       0.037700
     50 H232        -6.9990     2.8670    -0.7450 h1         1 J15       0.037700
     51 H241        -8.3800     0.5630    -2.2360 h1         1 J15       0.039450
     52 H242        -9.1190     2.0860    -1.7290 h1         1 J15       0.039450
     53 H281       -10.1020    -0.7440    -0.8360 h1         1 J15       0.028200
     54 H282       -10.7970     0.8500    -0.5350 h1         1 J15       0.028200
     55 H351       -10.5130     0.4750     1.9450 hc         1 J15       0.054200
     56 H352        -9.9820    -1.1760     1.6050 hc         1 J15       0.054200
     57 H361       -12.1610    -1.6590     0.4680 h1         1 J15       0.025700
     58 H362       -12.7100    -0.0010     0.8290 h1         1 J15       0.025700
     59 H371       -12.5480    -0.4720     3.1420 hn         1 J15       0.392000
     60 H372       -13.5450    -1.5190     2.4240 hn         1 J15       0.392000
     61 H261        -7.8350    -0.6140     1.3010 h1         1 J15       0.039450
     62 H262        -7.6120    -1.0930    -0.3860 h1         1 J15       0.039450
     63 H271        -5.4960    -0.3240     0.5760 h1         1 J15       0.037700
     64 H272        -6.2120     1.2080     1.0920 h1         1 J15       0.037700
     65 H2           7.5730     1.6790    -1.1990 h1         1 J15       0.071700
     66 HO2          7.2660     0.0800    -2.8930 ho         1 J15       0.514000
     67 H3           7.6750    -0.8330     0.5550 h1         1 J15       0.069700
     68 HO3          9.5760    -0.1020    -0.6990 ho         1 J15       0.471000
     69 H4           7.8940     0.6360     2.4700 h1         1 J15       0.056700
     70 HO4          8.9410     2.2800     1.0330 ho         1 J15       0.524000
     71 H5           5.6180     0.0220     1.8150 h1         1 J15       0.065700
     72 H61          5.8330     1.6270     3.7020 h1         1 J15       0.040700
     73 H62          5.6870     2.9850     2.5790 h1         1 J15       0.040700
     74 HO6          3.6680     2.5470     3.5550 ho         1 J15       0.508000
@<TRIPOS>BOND
     1     1     2 1   
     2     1    28 1   
     3     1    37 1   
     4     1    38 1   
     5     2     3 1   
     6     3     4 ar  
     7     3    11 ar  
     8     4     5 ar  
     9     4    39 1   
    10     5     6 1   
    11     5     9 ar  
    12     6     7 1   
    13     6     8 1   
    14     9    10 ar  
    15     9    40 1   
    16    10    11 ar  
    17    10    12 1   
    18    11    41 1   
    19    12    13 1   
    20    12    27 2   
    21    13    14 1   
    22    13    42 1   
    23    14    15 1   
    24    14    43 1   
    25    14    44 1   
    26    15    16 1   
    27    15    45 1   
    28    15    46 1   
    29    16    17 1   
    30    16    47 1   
    31    16    48 1   
    32    17    18 1   
    33    17    26 1   
    34    18    19 1   
    35    18    49 1   
    36    18    50 1   
    37    19    20 1   
    38    19    51 1   
    39    19    52 1   
    40    20    21 1   
    41    20    25 1   
    42    21    22 1   
    43    21    53 1   
    44    21    54 1   
    45    22    23 1   
    46    22    55 1   
    47    22    56 1   
    48    23    24 1   
    49    23    57 1   
    50    23    58 1   
    51    24    59 1   
    52    24    60 1   
    53    25    26 1   
    54    25    61 1   
    55    25    62 1   
    56    26    63 1   
    57    26    64 1   
    58    28    29 1   
    59    28    30 1   
    60    28    65 1   
    61    29    66 1   
    62    30    31 1   
    63    30    32 1   
    64    30    67 1   
    65    31    68 1   
    66    32    33 1   
    67    32    34 1   
    68    32    69 1   
    69    33    70 1   
    70    34    35 1   
    71    34    37 1   
    72    34    71 1   
    73    35    36 1   
    74    35    72 1   
    75    35    73 1   
    76    36    74 1   
@<TRIPOS>SUBSTRUCTURE
     1 J15         1 TEMP              0 ****  ****    0 ROOT
