@<TRIPOS>MOLECULE
J15
   74    76     1     0     0
SMALL
abcg2


@<TRIPOS>ATOM
      1 C1           5.5500     0.6050    -0.7070 c6         1 J15       0.363300
      2 O1           5.0340    -0.6920    -0.4830 os         1 J15      -0.366100
      3 C7           3.7290    -0.9560    -0.6680 ca         1 J15       0.133100
      4 C8           3.3830    -2.3030    -0.5900 ca         1 J15      -0.074000
      5 C9           2.0630    -2.6630    -0.7720 ca         1 J15      -0.154200
      6 N14          1.7100    -4.0770    -0.7070 no         1 J15       0.694200
      7 O15          2.5740    -4.8650    -0.4090 o          1 J15      -0.396000
      8 O16          0.5680    -4.3850    -0.9520 o          1 J15      -0.396000
      9 C10          1.0640    -1.7350    -1.0200 ca         1 J15      -0.069000
     10 C11          1.4210    -0.3960    -1.0800 ca         1 J15      -0.125600
     11 C12          2.7460    -0.0030    -0.9150 ca         1 J15      -0.093000
     12 C13          0.4080     0.6780    -1.3470 c          1 J15       0.612700
     13 N18         -0.8380     0.4190    -0.9260 ns         1 J15      -0.496900
     14 C19         -1.9310     1.3570    -1.0760 c3         1 J15       0.099000
     15 C20         -3.2650     0.6470    -0.9060 c3         1 J15      -0.096400
     16 C21         -4.4130     1.6470    -0.9510 c3         1 J15       0.171800
     17 N22         -5.7240     1.0270    -0.9230 n3         1 J15      -0.717600
     18 C23         -6.7600     1.9870    -1.2520 c6         1 J15       0.163800
     19 C24         -8.1230     1.3240    -1.2810 c6         1 J15       0.164300
     20 N25         -8.4260     0.7120    -0.0020 n3         1 J15      -0.719600
     21 C28         -9.7600     0.1400     0.0020 c3         1 J15       0.169800
     22 C35        -10.2470    -0.2790     1.3820 c3         1 J15      -0.081400
     23 C36        -11.7080    -0.7050     1.3540 c3         1 J15       0.148800
     24 N37        -12.1490    -1.1340     2.6740 n8         1 J15      -0.995200
     25 C26         -7.3940    -0.2510     0.3280 c6         1 J15       0.164300
     26 C27         -6.0260     0.4050     0.3530 c6         1 J15       0.163800
     27 O17          0.7270     1.7120    -1.9150 o          1 J15      -0.593100
     28 C2           7.0750     0.4790    -0.6770 c6         1 J15       0.115300
     29 O2           7.5450    -0.5130    -1.5510 oh         1 J15      -0.707000
     30 C3           7.5420     0.1390     0.7350 c6         1 J15       0.139300
     31 O3           8.9450     0.1570     0.8360 oh         1 J15      -0.671000
     32 C4           6.9950     1.1680     1.7220 c6         1 J15       0.147300
     33 O4           7.5470     2.4430     1.4990 oh         1 J15      -0.716000
     34 C5           5.4830     1.2500     1.5780 c6         1 J15       0.168300
     35 C6           4.8730     2.3310     2.4450 c3         1 J15       0.171600
     36 O6           3.4730     2.2030     2.3970 oh         1 J15      -0.717000
     37 O5           5.1040     1.5180     0.2330 os         1 J15      -0.442000
     38 H1           5.2130     0.9760    -1.6820 h2         1 J15       0.085700
     39 H8           4.1520    -3.0390    -0.4000 ha         1 J15       0.166000
     40 H10          0.0450    -2.0540    -1.1830 ha         1 J15       0.153000
     41 H12          2.9810     1.0510    -0.9600 ha         1 J15       0.164000
     42 H18         -0.9870    -0.3540    -0.2980 hn         1 J15       0.316500
     43 H191        -1.8720     1.8140    -2.0640 h1         1 J15       0.053700
     44 H192        -1.8400     2.1660    -0.3430 h1         1 J15       0.053700
     45 H201        -3.2630     0.1080     0.0460 hc         1 J15       0.053700
     46 H202        -3.3940    -0.0950    -1.6970 hc         1 J15       0.053700
     47 H211        -4.3400     2.2180    -1.8810 h1         1 J15       0.032700
     48 H212        -4.2920     2.3760    -0.1310 h1         1 J15       0.032700
     49 H231        -6.5510     2.4150    -2.2360 h1         1 J15       0.037700
     50 H232        -6.7830     2.8250    -0.5330 h1         1 J15       0.037700
     51 H241        -8.1490     0.5870    -2.1030 h1         1 J15       0.039450
     52 H242        -8.8800     2.0800    -1.5040 h1         1 J15       0.039450
     53 H281        -9.8310    -0.7200    -0.6870 h1         1 J15       0.028200
     54 H282       -10.4420     0.9000    -0.3900 h1         1 J15       0.028200
     55 H351       -10.1230     0.5610     2.0730 hc         1 J15       0.054200
     56 H352        -9.6530    -1.1070     1.7760 hc         1 J15       0.054200
     57 H361       -11.8220    -1.5470     0.6660 h1         1 J15       0.025700
     58 H362       -12.3100     0.1150     0.9360 h1         1 J15       0.025700
     59 H371       -12.1480    -0.3370     3.2990 hn         1 J15       0.392000
     60 H372       -13.1120    -1.4380     2.6240 hn         1 J15       0.392000
     61 H261        -7.5850    -0.6780     1.3140 h1         1 J15       0.039450
     62 H262        -7.3810    -1.0910    -0.3900 h1         1 J15       0.039450
     63 H271        -5.2850    -0.3640     0.5750 h1         1 J15       0.037700
     64 H272        -5.9890     1.1390     1.1770 h1         1 J15       0.037700
     65 H2           7.4740     1.4650    -0.9450 h1         1 J15       0.071700
     66 HO2          7.5970    -0.1490    -2.4400 ho         1 J15       0.514000
     67 H3           7.1460    -0.8470     1.0170 h1         1 J15       0.069700
     68 HO3          9.3110    -0.3740     0.1200 ho         1 J15       0.471000
     69 H4           7.2110     0.8180     2.7430 h1         1 J15       0.056700
     70 HO4          8.5050     2.3500     1.4720 ho         1 J15       0.524000
     71 H5           5.0710     0.2850     1.9030 h1         1 J15       0.065700
     72 H61          5.2600     2.2000     3.4640 h1         1 J15       0.040700
     73 H62          5.2040     3.3160     2.0990 h1         1 J15       0.040700
     74 HO6          3.0910     2.9510     2.8650 ho         1 J15       0.508000
@<TRIPOS>BOND
     1     1     2 1   
     2     1    28 1   
     3     1    37 1   
     4     1    38 1   
     5     2     3 1   
     6     3     4 ar  
     7     3    11 ar  
     8     4     5 ar  
     9     4    39 1   
    10     5     6 1   
    11     5     9 ar  
    12     6     7 1   
    13     6     8 1   
    14     9    10 ar  
    15     9    40 1   
    16    10    11 ar  
    17    10    12 1   
    18    11    41 1   
    19    12    13 1   
    20    12    27 2   
    21    13    14 1   
    22    13    42 1   
    23    14    15 1   
    24    14    43 1   
    25    14    44 1   
    26    15    16 1   
    27    15    45 1   
    28    15    46 1   
    29    16    17 1   
    30    16    47 1   
    31    16    48 1   
    32    17    18 1   
    33    17    26 1   
    34    18    19 1   
    35    18    49 1   
    36    18    50 1   
    37    19    20 1   
    38    19    51 1   
    39    19    52 1   
    40    20    21 1   
    41    20    25 1   
    42    21    22 1   
    43    21    53 1   
    44    21    54 1   
    45    22    23 1   
    46    22    55 1   
    47    22    56 1   
    48    23    24 1   
    49    23    57 1   
    50    23    58 1   
    51    24    59 1   
    52    24    60 1   
    53    25    26 1   
    54    25    61 1   
    55    25    62 1   
    56    26    63 1   
    57    26    64 1   
    58    28    29 1   
    59    28    30 1   
    60    28    65 1   
    61    29    66 1   
    62    30    31 1   
    63    30    32 1   
    64    30    67 1   
    65    31    68 1   
    66    32    33 1   
    67    32    34 1   
    68    32    69 1   
    69    33    70 1   
    70    34    35 1   
    71    34    37 1   
    72    34    71 1   
    73    35    36 1   
    74    35    72 1   
    75    35    73 1   
    76    36    74 1   
@<TRIPOS>SUBSTRUCTURE
     1 J15         1 TEMP              0 ****  ****    0 ROOT
