@<TRIPOS>MOLECULE
J18
   72    76     1     0     0
SMALL
No Charge or Current Charge


@<TRIPOS>ATOM
      1 C20         -4.4120    -0.3580     0.1260 cp         1 J18      -0.030000
      2 C21         -5.7150    -1.0860     0.0610 cp         1 J18      -0.036000
      3 C22         -6.9770    -0.4200     0.1410 ca         1 J18      -0.057300
      4 C23         -7.0550     1.0940     0.3680 c3         1 J18      -0.050800
      5 C24         -8.1770    -1.1740     0.0270 ca         1 J18      -0.080300
      6 C25         -9.5520    -0.5100     0.0730 c3         1 J18      -0.045800
      7 C26         -8.1150    -2.5720    -0.1330 ca         1 J18      -0.105000
      8 C27         -6.8800    -3.2300    -0.1840 ca         1 J18      -0.113000
      9 C28         -5.6940    -2.4920    -0.0900 ca         1 J18      -0.099000
     10 C29         -3.4330    -0.7140     1.0820 ca         1 J18      -0.101000
     11 C11          6.6040    -2.0810     1.7430 ca         1 J18      -0.070000
     12 C01         -0.6340     4.1440     1.4720 c3         1 J18       0.163600
     13 C02         -0.5240     3.2790     0.1910 cy         1 J18       0.202500
     14 C03          1.6000     4.0130    -1.1360 c3         1 J18       0.209800
     15 C04          3.1290     3.8490    -0.9600 c3         1 J18      -0.073400
     16 C05          3.7220     2.4390    -1.2310 c3         1 J18      -0.066400
     17 C06          3.3310     1.3530    -0.1870 c3         1 J18       0.239800
     18 C07          3.9890    -1.5050     0.8190 ca         1 J18      -0.205500
     19 C08          4.9200    -2.1680    -0.0540 ca         1 J18      -0.098300
     20 C09          4.5940    -2.6190    -1.5040 c3         1 J18       0.354300
     21 C10          6.2180    -2.4500     0.4470 ca         1 J18      -0.091000
     22 C12          5.6990    -1.4230     2.5790 ca         1 J18      -0.102000
     23 C13          4.4060    -1.1400     2.1230 ca         1 J18      -0.039000
     24 C14          1.2570     0.6420    -1.4740 c3         1 J18       0.236800
     25 C15          0.2990     1.7790    -0.9970 cy         1 J18       0.160500
     26 C16         -0.5540     1.7050     0.3220 cy         1 J18      -0.038400
     27 C17         -1.9080     0.9960     0.2390 ca         1 J18      -0.075300
     28 C18         -2.8690     1.3510    -0.7310 ca         1 J18      -0.099000
     29 C19         -4.1020     0.6790    -0.7860 ca         1 J18      -0.101000
     30 C30         -2.1990    -0.0450     1.1400 ca         1 J18      -0.099000
     31 F01          3.9950    -1.6600    -2.2410 f          1 J18      -0.105000
     32 F02          5.7010    -2.9640    -2.2030 f          1 J18      -0.105000
     33 F03          3.7930    -3.7080    -1.5210 f          1 J18      -0.105000
     34 N01          0.8450     3.0240    -0.3660 nq         1 J18      -0.777600
     35 N02          2.4660     0.2560    -0.6850 n3         1 J18      -0.775500
     36 O02          1.7140    -2.1520    -0.4340 o          1 J18      -0.541000
     37 O03          1.5600    -0.5650     1.5600 o          1 J18      -0.541000
     38 S01          2.2670    -1.0630     0.3770 sy         1 J18       1.164600
     39 H24         -7.1780     1.6270    -0.5820 hc         1 J18       0.043367
     40 H25         -7.8920     1.3710     1.0180 hc         1 J18       0.043367
     41 H23         -6.1570     1.4860     0.8590 hc         1 J18       0.043367
     42 H26         -9.6060     0.3450    -0.6130 hc         1 J18       0.040367
     43 H27        -10.3500    -1.2040    -0.2170 hc         1 J18       0.040367
     44 H28         -9.7830    -0.1510     1.0830 hc         1 J18       0.040367
     45 H29         -9.0300    -3.1550    -0.2150 ha         1 J18       0.110000
     46 H3A         -6.8420    -4.3100    -0.3060 ha         1 J18       0.114000
     47 H3B         -4.7400    -3.0120    -0.1480 ha         1 J18       0.117000
     48 H3C         -3.6400    -1.5150     1.7890 ha         1 J18       0.117500
     49 H01         -1.5950     3.9060     1.9470 h1         1 J18       0.035200
     50 H02          0.1630     3.8310     2.1610 h1         1 J18       0.035200
     51 H03         -1.2390     3.6600    -0.5490 h1         1 J18       0.048700
     52 H05          1.3270     5.0180    -0.7910 h1         1 J18       0.037200
     53 H04          1.3260     3.9370    -2.1970 h1         1 J18       0.037200
     54 H07          3.6230     4.5680    -1.6250 hc         1 J18       0.043200
     55 H06          3.3940     4.1490     0.0610 hc         1 J18       0.043200
     56 H09          3.4810     2.1160    -2.2500 hc         1 J18       0.042200
     57 H08          4.8140     2.5350    -1.2090 hc         1 J18       0.042200
     58 H1B          4.2790     0.9300     0.1680 h1         1 J18       0.045700
     59 H1A          2.8770     1.8310     0.6910 h1         1 J18       0.045700
     60 H10          6.9530    -2.9660    -0.1670 ha         1 J18       0.134000
     61 H12          5.9980    -1.1340     3.5850 ha         1 J18       0.125000
     62 H13          3.7260    -0.6280     2.8010 ha         1 J18       0.149000
     63 H14          0.6240    -0.2340    -1.6670 h1         1 J18       0.074700
     64 H31          1.5930     0.9640    -2.4680 h1         1 J18       0.074700
     65 H15         -0.3410     1.9970    -1.8630 h1         1 J18       0.044700
     66 H16          0.0210     1.3700     1.1910 hc         1 J18       0.073700
     67 H18         -2.6680     2.1410    -1.4500 ha         1 J18       0.118000
     68 H19         -4.8260     0.9580    -1.5480 ha         1 J18       0.117500
     69 H30         -1.4670    -0.3400     1.8890 ha         1 J18       0.118000
     70 O01         -0.5490     5.5600     1.2150 oh         1 J18      -0.665000
     71 H11          7.6070    -2.3080     2.0980 ha         1 J18       0.124000
     72 H32         -0.5740     6.0100     2.0870 ho         1 J18       0.443000
@<TRIPOS>BOND
     1     1     2 1   
     2     1    10 ar  
     3     1    29 ar  
     4     2     3 ar  
     5     2     9 ar  
     6     3     4 1   
     7     3     5 ar  
     8     4    39 1   
     9     4    40 1   
    10     4    41 1   
    11     5     6 1   
    12     5     7 ar  
    13     6    42 1   
    14     6    43 1   
    15     6    44 1   
    16     7     8 ar  
    17     7    45 1   
    18     8     9 ar  
    19     8    46 1   
    20     9    47 1   
    21    10    30 ar  
    22    10    48 1   
    23    11    21 ar  
    24    11    22 ar  
    25    11    71 1   
    26    12    13 1   
    27    12    49 1   
    28    12    50 1   
    29    12    70 1   
    30    13    26 1   
    31    13    34 1   
    32    13    51 1   
    33    14    15 1   
    34    14    34 1   
    35    14    52 1   
    36    14    53 1   
    37    15    16 1   
    38    15    54 1   
    39    15    55 1   
    40    16    17 1   
    41    16    56 1   
    42    16    57 1   
    43    17    35 1   
    44    17    58 1   
    45    17    59 1   
    46    18    19 ar  
    47    18    23 ar  
    48    18    38 1   
    49    19    20 1   
    50    19    21 ar  
    51    20    31 1   
    52    20    32 1   
    53    20    33 1   
    54    21    60 1   
    55    22    23 ar  
    56    22    61 1   
    57    23    62 1   
    58    24    25 1   
    59    24    35 1   
    60    24    63 1   
    61    24    64 1   
    62    25    26 1   
    63    25    34 1   
    64    25    65 1   
    65    26    27 1   
    66    26    66 1   
    67    27    28 ar  
    68    27    30 ar  
    69    28    29 ar  
    70    28    67 1   
    71    29    68 1   
    72    30    69 1   
    73    35    38 1   
    74    36    38 2   
    75    37    38 2   
    76    70    72 1   
@<TRIPOS>SUBSTRUCTURE
     1 J18         1 TEMP              0 ****  ****    0 ROOT
