@<TRIPOS>MOLECULE
J18
   72    76     1     0     0
SMALL
abcg2


@<TRIPOS>ATOM
      1 C20         -4.4200    -0.3820    -0.0990 cp         1 J18      -0.030000
      2 C21         -5.7130    -1.0940    -0.2330 cp         1 J18      -0.036000
      3 C22         -6.9420    -0.4860     0.0610 ca         1 J18      -0.057300
      4 C23         -7.0330     0.9150     0.5990 c3         1 J18      -0.050800
      5 C24         -8.1300    -1.2120    -0.1280 ca         1 J18      -0.080300
      6 C25         -9.4620    -0.5840     0.1620 c3         1 J18      -0.045800
      7 C26         -8.0720    -2.5250    -0.5820 ca         1 J18      -0.105000
      8 C27         -6.8540    -3.1340    -0.8500 ca         1 J18      -0.113000
      9 C28         -5.6840    -2.4190    -0.6750 ca         1 J18      -0.099000
     10 C29         -3.4020    -0.9070     0.6940 ca         1 J18      -0.101000
     11 C11          6.6150    -2.1570     1.4770 ca         1 J18      -0.070000
     12 C01         -0.2060     3.7520     1.5880 c3         1 J18       0.163600
     13 C02         -0.4240     3.1100     0.2420 cy         1 J18       0.202500
     14 C03          1.3460     3.8710    -1.4900 c3         1 J18       0.209800
     15 C04          2.8460     3.9960    -1.2530 c3         1 J18      -0.073400
     16 C05          3.6290     2.6810    -1.2090 c3         1 J18      -0.066400
     17 C06          3.3660     1.7830     0.0090 c3         1 J18       0.239800
     18 C07          4.0420    -1.1640     1.1010 ca         1 J18      -0.205500
     19 C08          4.5350    -2.1550     0.2370 ca         1 J18      -0.098300
     20 C09          3.7500    -2.7790    -0.8890 c3         1 J18       0.354300
     21 C10          5.8200    -2.6400     0.4480 ca         1 J18      -0.091000
     22 C12          6.1280    -1.1780     2.3190 ca         1 J18      -0.102000
     23 C13          4.8420    -0.6900     2.1320 ca         1 J18      -0.039000
     24 C14          1.4440     0.6230    -1.2440 c3         1 J18       0.236800
     25 C15          0.3370     1.6240    -1.0090 cy         1 J18       0.160500
     26 C16         -0.5860     1.5720     0.2290 cy         1 J18      -0.038400
     27 C17         -1.9240     0.9220     0.1150 ca         1 J18      -0.075300
     28 C18         -2.9400     1.4390    -0.6890 ca         1 J18      -0.099000
     29 C19         -4.1650     0.8010    -0.7920 ca         1 J18      -0.101000
     30 C30         -2.1780    -0.2640     0.8000 ca         1 J18      -0.099000
     31 F01          3.1190    -1.8760    -1.6420 f          1 J18      -0.105000
     32 F02          4.5470    -3.4610    -1.7200 f          1 J18      -0.105000
     33 F03          2.8420    -3.6490    -0.4420 f          1 J18      -0.105000
     34 N01          0.7650     2.9290    -0.5720 nq         1 J18      -0.777600
     35 N02          2.4870     0.6200    -0.2280 n3         1 J18      -0.775500
     36 O02          1.4360    -1.4810     0.6780 o          1 J18      -0.541000
     37 O03          2.2140     0.2610     2.2770 o          1 J18      -0.541000
     38 S01          2.3960    -0.4420     1.0120 sy         1 J18       1.164600
     39 H24         -7.4290     1.6050    -0.1500 hc         1 J18       0.043367
     40 H25         -7.7120     0.9600     1.4520 hc         1 J18       0.043367
     41 H23         -6.0710     1.3020     0.9240 hc         1 J18       0.043367
     42 H26         -9.6220     0.3200    -0.4290 hc         1 J18       0.040367
     43 H27        -10.2760    -1.2730    -0.0600 hc         1 J18       0.040367
     44 H28         -9.5550    -0.2940     1.2110 hc         1 J18       0.040367
     45 H29         -8.9930    -3.0780    -0.7250 ha         1 J18       0.110000
     46 H3A         -6.8210    -4.1580    -1.2010 ha         1 J18       0.114000
     47 H3B         -4.7310    -2.8810    -0.9020 ha         1 J18       0.117000
     48 H3C         -3.5710    -1.8240     1.2460 ha         1 J18       0.117500
     49 H01         -1.1050     3.6070     2.2030 h1         1 J18       0.035200
     50 H02          0.6200     3.2280     2.0870 h1         1 J18       0.035200
     51 H03         -1.2480     3.6130    -0.2890 h1         1 J18       0.048700
     52 H05          0.8780     4.8510    -1.3710 h1         1 J18       0.037200
     53 H04          1.1530     3.5580    -2.5260 h1         1 J18       0.037200
     54 H07          3.2800     4.6310    -2.0310 hc         1 J18       0.043200
     55 H06          3.0020     4.5190    -0.3050 hc         1 J18       0.043200
     56 H09          3.5270     2.1270    -2.1450 hc         1 J18       0.042200
     57 H08          4.6870     2.9490    -1.1620 hc         1 J18       0.042200
     58 H1B          4.3300     1.3830     0.3330 h1         1 J18       0.045700
     59 H1A          2.9750     2.3930     0.8230 h1         1 J18       0.045700
     60 H10          6.2240    -3.4100    -0.1930 ha         1 J18       0.134000
     61 H12          6.7340    -0.7880     3.1250 ha         1 J18       0.125000
     62 H13          4.4660     0.0690     2.8020 ha         1 J18       0.149000
     63 H14          1.0220    -0.3740    -1.3440 h1         1 J18       0.074700
     64 H31          1.9150     0.8410    -2.2050 h1         1 J18       0.074700
     65 H15         -0.2740     1.6540    -1.9310 h1         1 J18       0.044700
     66 H16         -0.0450     1.1560     1.0820 hc         1 J18       0.073700
     67 H18         -2.7800     2.3530    -1.2480 ha         1 J18       0.118000
     68 H19         -4.9300     1.2260    -1.4310 ha         1 J18       0.117500
     69 H30         -1.4050    -0.6940     1.4260 ha         1 J18       0.118000
     70 O01          0.0830     5.1190     1.3950 oh         1 J18      -0.665000
     71 H11          7.6120    -2.5530     1.6110 ha         1 J18       0.124000
     72 H32          0.3260     5.4980     2.2440 ho         1 J18       0.443000
@<TRIPOS>BOND
     1     1     2 1   
     2     1    10 ar  
     3     1    29 ar  
     4     2     3 ar  
     5     2     9 ar  
     6     3     4 1   
     7     3     5 ar  
     8     4    39 1   
     9     4    40 1   
    10     4    41 1   
    11     5     6 1   
    12     5     7 ar  
    13     6    42 1   
    14     6    43 1   
    15     6    44 1   
    16     7     8 ar  
    17     7    45 1   
    18     8     9 ar  
    19     8    46 1   
    20     9    47 1   
    21    10    30 ar  
    22    10    48 1   
    23    11    21 ar  
    24    11    22 ar  
    25    11    71 1   
    26    12    13 1   
    27    12    49 1   
    28    12    50 1   
    29    12    70 1   
    30    13    26 1   
    31    13    34 1   
    32    13    51 1   
    33    14    15 1   
    34    14    34 1   
    35    14    52 1   
    36    14    53 1   
    37    15    16 1   
    38    15    54 1   
    39    15    55 1   
    40    16    17 1   
    41    16    56 1   
    42    16    57 1   
    43    17    35 1   
    44    17    58 1   
    45    17    59 1   
    46    18    19 ar  
    47    18    23 ar  
    48    18    38 1   
    49    19    20 1   
    50    19    21 ar  
    51    20    31 1   
    52    20    32 1   
    53    20    33 1   
    54    21    60 1   
    55    22    23 ar  
    56    22    61 1   
    57    23    62 1   
    58    24    25 1   
    59    24    35 1   
    60    24    63 1   
    61    24    64 1   
    62    25    26 1   
    63    25    34 1   
    64    25    65 1   
    65    26    27 1   
    66    26    66 1   
    67    27    28 ar  
    68    27    30 ar  
    69    28    29 ar  
    70    28    67 1   
    71    29    68 1   
    72    30    69 1   
    73    35    38 1   
    74    36    38 2   
    75    37    38 2   
    76    70    72 1   
@<TRIPOS>SUBSTRUCTURE
     1 J18         1 TEMP              0 ****  ****    0 ROOT
