@<TRIPOS>MOLECULE
J19
   37    39     1     0     0
SMALL
No Charge or Current Charge


@<TRIPOS>ATOM
      1 C21          2.4440    -1.1380    -0.2080 ca         1 J19      -0.063000
      2 C11         -0.0790     2.7490     0.7400 c          1 J19       0.588200
      3 N10         -1.4060     2.5500     0.8940 ns         1 J19      -0.427400
      4 C12          0.5510     1.4380     0.4560 cc         1 J19      -0.129600
      5 S13         -0.6310     0.1150     0.4240 ss         1 J19      -0.204800
      6 C9          -1.8880     1.2960     0.7710 cc         1 J19       0.547800
      7 N8          -3.1220     0.9300     0.8850 nf         1 J19      -0.609100
      8 C4          -3.6750    -0.3640     0.7000 ca         1 J19       0.153400
      9 C3          -3.9150    -1.1670     1.8290 ca         1 J19      -0.117000
     10 C2          -4.4580    -2.4570     1.6820 ca         1 J19      -0.097000
     11 C5          -3.9860    -0.8610    -0.5890 ca         1 J19       0.121000
     12 Cl7         -3.7020     0.1100    -2.0370 cl         1 J19      -0.186000
     13 C6          -4.5280    -2.1510    -0.7320 ca         1 J19      -0.095000
     14 C1          -4.7640    -2.9480     0.4010 ca         1 J19      -0.108000
     15 C15          1.9060     1.3160     0.2480 cf         1 J19      -0.027200
     16 C16          2.8500     0.2070    -0.0540 ca         1 J19      -0.093800
     17 C20          3.3840    -2.1430    -0.4940 ca         1 J19      -0.137000
     18 C19          4.7390    -1.8220    -0.6300 ca         1 J19       0.149100
     19 O22          5.6480    -2.8010    -0.9070 oh         1 J19      -0.525100
     20 C18          5.1700    -0.4900    -0.4810 ca         1 J19       0.038100
     21 C17          4.2220     0.5180    -0.1940 ca         1 J19      -0.125000
     22 O23          6.5230    -0.2230    -0.6250 os         1 J19      -0.367100
     23 C24          7.0650     1.1050    -0.4930 c3         1 J19       0.155900
     24 H1           1.4060    -1.4300    -0.1120 ha         1 J19       0.128000
     25 H3          -3.6790    -0.7910     2.8220 ha         1 J19       0.126000
     26 H4          -4.6400    -3.0740     2.5590 ha         1 J19       0.120000
     27 H5          -4.7650    -2.5310    -1.7230 ha         1 J19       0.131000
     28 H6          -5.1830    -3.9460     0.2870 ha         1 J19       0.120000
     29 H7           2.4170     2.2780     0.3220 ha         1 J19       0.198000
     30 H9           3.0580    -3.1740    -0.6100 ha         1 J19       0.137000
     31 H10          6.5240    -2.3560    -0.9580 ho         1 J19       0.487000
     32 H11          4.5410     1.5500    -0.0770 ha         1 J19       0.121000
     33 H12          6.6290     1.7810    -1.2390 h1         1 J19       0.045033
     34 H13          6.8690     1.5090     0.5080 h1         1 J19       0.045033
     35 H14          8.1520     1.0890    -0.6450 h1         1 J19       0.045033
     36 H2          -2.0110     3.3310     1.0940 hn         1 J19       0.358500
     37 O14          0.4640     3.8390     0.8270 o          1 J19      -0.502000
@<TRIPOS>BOND
     1     1    16 ar  
     2     1    17 ar  
     3     1    24 1   
     4     2     3 1   
     5     2     4 1   
     6     2    37 2   
     7     3     6 1   
     8     3    36 1   
     9     4     5 1   
    10     4    15 2   
    11     5     6 1   
    12     6     7 2   
    13     7     8 1   
    14     8     9 ar  
    15     8    11 ar  
    16     9    10 ar  
    17     9    25 1   
    18    10    14 ar  
    19    10    26 1   
    20    11    12 1   
    21    11    13 ar  
    22    13    14 ar  
    23    13    27 1   
    24    14    28 1   
    25    15    16 1   
    26    15    29 1   
    27    16    21 ar  
    28    17    18 ar  
    29    17    30 1   
    30    18    19 1   
    31    18    20 ar  
    32    19    31 1   
    33    20    21 ar  
    34    20    22 1   
    35    21    32 1   
    36    22    23 1   
    37    23    33 1   
    38    23    34 1   
    39    23    35 1   
@<TRIPOS>SUBSTRUCTURE
     1 J19         1 TEMP              0 ****  ****    0 ROOT
