@<TRIPOS>MOLECULE
J19
   37    39     1     0     0
SMALL
bcc


@<TRIPOS>ATOM
      1 C21          2.3030    -0.9560    -0.6430 ca         1 J19      -0.081000
      2 C11         -0.1280     2.8030     0.4070 c          1 J19       0.730700
      3 N10         -1.4660     2.5880     0.6120 ns         1 J19      -0.494400
      4 C12          0.5480     1.5110     0.1540 cc         1 J19      -0.129600
      5 S13         -0.6080     0.1910     0.1970 ss         1 J19      -0.204800
      6 C9          -1.9370     1.3080     0.5460 cc         1 J19       0.547800
      7 N8          -3.1520     1.0040     0.6960 nf         1 J19      -0.609100
      8 C4          -3.5300    -0.3360     0.6580 ca         1 J19       0.153400
      9 C3          -3.1990    -1.2160     1.6890 ca         1 J19      -0.135000
     10 C2          -3.6270    -2.5350     1.6620 ca         1 J19      -0.115000
     11 C5          -4.3060    -0.8200    -0.3960 ca         1 J19       0.029400
     12 CL7         -4.7220     0.2500    -1.6900 cl         1 J19      -0.094400
     13 C6          -4.7390    -2.1360    -0.4290 ca         1 J19      -0.113000
     14 C1          -4.3960    -2.9970     0.6040 ca         1 J19      -0.126000
     15 C15          1.8770     1.4480    -0.0220 cf         1 J19       0.022800
     16 C16          2.7430     0.3140    -0.2700 ca         1 J19      -0.093800
     17 C20          3.2080    -1.9830    -0.8550 ca         1 J19      -0.155000
     18 C19          4.5690    -1.7740    -0.6930 ca         1 J19       0.149100
     19 O22          5.4160    -2.7900    -0.8990 oh         1 J19      -0.486100
     20 C18          5.0310    -0.4960    -0.3240 ca         1 J19       0.038100
     21 C17          4.1260     0.5270    -0.1270 ca         1 J19      -0.143000
     22 O23          6.3690    -0.3980    -0.1970 os         1 J19      -0.343900
     23 C24          6.9250     0.8530     0.1620 c3         1 J19       0.132700
     24 H1           1.2570    -1.1700    -0.8130 ha         1 J19       0.146000
     25 H3          -2.6180    -0.8500     2.5260 ha         1 J19       0.144000
     26 H4          -3.3590    -3.2000     2.4720 ha         1 J19       0.138000
     27 H5          -5.3340    -2.4870    -1.2620 ha         1 J19       0.149000
     28 H6          -4.7360    -4.0230     0.5790 ha         1 J19       0.138000
     29 H7           2.3860     2.4050     0.0530 ha         1 J19       0.148000
     30 H9           2.8570    -2.9620    -1.1550 ha         1 J19       0.155000
     31 H10          6.3290    -2.5040    -0.7660 ho         1 J19       0.448000
     32 H11          4.4720     1.5130     0.1550 ha         1 J19       0.139000
     33 H12          6.7050     1.6210    -0.5830 h1         1 J19       0.045033
     34 H13          6.5660     1.1890     1.1370 h1         1 J19       0.045033
     35 H14          8.0010     0.7090     0.2130 h1         1 J19       0.045033
     36 H2          -2.1010     3.3520     0.8050 hn         1 J19       0.358500
     37 O14          0.3990     3.8920     0.4370 o          1 J19      -0.577500
@<TRIPOS>BOND
     1     1    16 ar  
     2     1    17 ar  
     3     1    24 1   
     4     2     3 1   
     5     2     4 1   
     6     2    37 2   
     7     3     6 1   
     8     3    36 1   
     9     4     5 1   
    10     4    15 2   
    11     5     6 1   
    12     6     7 2   
    13     7     8 1   
    14     8     9 ar  
    15     8    11 ar  
    16     9    10 ar  
    17     9    25 1   
    18    10    14 ar  
    19    10    26 1   
    20    11    12 1   
    21    11    13 ar  
    22    13    14 ar  
    23    13    27 1   
    24    14    28 1   
    25    15    16 1   
    26    15    29 1   
    27    16    21 ar  
    28    17    18 ar  
    29    17    30 1   
    30    18    19 1   
    31    18    20 ar  
    32    19    31 1   
    33    20    21 ar  
    34    20    22 1   
    35    21    32 1   
    36    22    23 1   
    37    23    33 1   
    38    23    34 1   
    39    23    35 1   
@<TRIPOS>SUBSTRUCTURE
     1 J19         1 TEMP              0 ****  ****    0 ROOT
