@<TRIPOS>MOLECULE
J1A
   73    78     1     0     0
SMALL
No Charge or Current Charge


@<TRIPOS>ATOM
      1 C1          -5.4410     2.2460    -1.8060 c5         1 J1A       0.177300
      2 N1          -4.1970    -0.3990    -0.3510 na         1 J1A      -0.296300
      3 O1          -5.0610     0.8930    -2.1520 os         1 J1A      -0.429000
      4 S1          -2.7210     3.0980    -1.7970 ss         1 J1A      -0.400000
      5 C2          -6.8070     2.0430    -1.0850 c5         1 J1A       0.110300
      6 N2          -1.9640    -0.8970    -0.0190 nc         1 J1A      -0.553100
      7 O2          -7.8790     1.7250    -1.9790 oh         1 J1A      -0.703000
      8 C3          -6.4890     0.8000    -0.1990 c5         1 J1A       0.078300
      9 O3          -7.6950     0.0500     0.0660 oh         1 J1A      -0.689000
     10 C4          -5.4120     0.0170    -1.0540 c5         1 J1A       0.320300
     11 N4          -3.2490    -2.1540     3.2420 nb         1 J1A      -0.305000
     12 C5          -2.8830    -0.3820    -0.8580 cd         1 J1A       0.408700
     13 N5          -4.9980    -1.2630     1.8270 nb         1 J1A      -0.214000
     14 C6          -2.7420    -1.2540     1.0750 ca         1 J1A      -0.099600
     15 N6           0.8840     3.8870     1.1000 n3         1 J1A      -0.727600
     16 C7          -2.3520    -1.8550     2.2910 ca         1 J1A       0.448900
     17 C8          -4.5360    -1.8410     2.9610 ca         1 J1A       0.178900
     18 N8           8.7270    -2.2570    -1.2760 nc         1 J1A      -0.778700
     19 C9          -4.0720    -0.9730     0.8900 ca         1 J1A       0.132500
     20 C10         -4.3490     2.9240    -0.9290 c3         1 J1A       0.024600
     21 N10          7.2730    -4.1150    -1.6560 ns         1 J1A      -0.462400
     22 C11         -1.6760     3.7250    -0.4080 c6         1 J1A       0.076300
     23 N11          5.3230    -1.6750     0.2280 nb         1 J1A      -0.538000
     24 C12         -1.1980     2.5850     0.5230 c6         1 J1A      -0.107900
     25 N12          7.8300    -0.4170    -0.0590 nb         1 J1A      -0.117000
     26 C13         -0.2850     3.1350     1.6470 c6         1 J1A       0.171800
     27 C14          0.4240     5.0190     0.2460 c6         1 J1A       0.171800
     28 C15         -0.4670     4.5370    -0.9280 c6         1 J1A      -0.107900
     29 C18          4.4090     0.2500     1.4900 c3         1 J1A       0.124500
     30 C19          8.4230    -3.4370    -1.7400 cd         1 J1A       0.755800
     31 C20          6.1710    -3.6350    -1.0320 c          1 J1A       0.492500
     32 C21          5.5530    -0.4440     0.7400 ca         1 J1A       0.246300
     33 C22          6.8080     0.1750     0.5940 ca         1 J1A       0.083900
     34 C25          7.6440    -1.6480    -0.5920 ca         1 J1A       0.328000
     35 C26          6.3620    -2.2680    -0.4340 ca         1 J1A       0.149500
     36 C27          2.6070     1.9870     1.3690 c3         1 J1A       0.155800
     37 N28          3.7380     1.3100     0.6910 n7         1 J1A      -0.849400
     38 H1          -5.5590     2.8360    -2.7260 h1         1 J1A       0.109700
     39 H2          -7.0710     2.9160    -0.4700 h1         1 J1A       0.055700
     40 HO2         -8.3170     0.9630    -1.5170 ho         1 J1A       0.525000
     41 H3          -6.0420     1.1370     0.7470 h1         1 J1A       0.056700
     42 HN3         -0.8870    -2.8620     3.2970 hn         1 J1A       0.506500
     43 HN3A        -0.4090    -2.1650     1.7870 hn         1 J1A       0.506500
     44 HO3         -7.5050    -0.5620     0.8180 ho         1 J1A       0.514000
     45 H4          -5.8510    -0.9040    -1.4590 h2         1 J1A       0.122700
     46 H5          -2.6720     0.0080    -1.8470 h5         1 J1A       0.082800
     47 H8          -5.2750    -2.0790     3.7240 h5         1 J1A       0.044100
     48 HN9         10.2890    -3.5340    -2.2380 hn         1 J1A       0.514000
     49 HN9A         9.4750    -5.0290    -2.2890 hn         1 J1A       0.514000
     50 H10         -4.6980     3.9250    -0.6440 h1         1 J1A       0.062200
     51 H10A        -4.1980     2.3510    -0.0060 h1         1 J1A       0.062200
     52 H11         -2.3080     4.4080     0.1800 h1         1 J1A       0.061700
     53 H12         -2.0620     2.0790     0.9740 hc         1 J1A       0.057450
     54 H12A        -0.6630     1.8230    -0.0590 hc         1 J1A       0.057450
     55 H13          0.0380     2.3070     2.2940 h1         1 J1A       0.052950
     56 H13A        -0.8860     3.8020     2.2840 h1         1 J1A       0.052950
     57 H14         -0.1540     5.7320     0.8540 h1         1 J1A       0.052950
     58 H14A         1.2840     5.5760    -0.1550 h1         1 J1A       0.052950
     59 H15          0.1230     3.9290    -1.6270 hc         1 J1A       0.057450
     60 H15A        -0.8220     5.4050    -1.4990 hc         1 J1A       0.057450
     61 H18          3.6760    -0.5110     1.7930 h1         1 J1A       0.044700
     62 H18A         4.8180     0.6790     2.4160 h1         1 J1A       0.044700
     63 H22          7.0010     1.1630     1.0080 h4         1 J1A       0.028100
     64 H27          2.9600     2.4930     2.2780 h1         1 J1A       0.036700
     65 H27A         1.8570     1.2440     1.6720 h1         1 J1A       0.036700
     66 HN28         4.4350     2.0230     0.4400 hn         1 J1A       0.404000
     67 N3          -1.0610    -2.1770     2.5670 nv         1 J1A      -1.065900
     68 C16          1.9300     3.0410     0.4470 c3         1 J1A       0.165800
     69 HN10         7.1880    -5.0170    -2.0940 hn         1 J1A       0.325500
     70 O4           5.1350    -4.2850    -0.9820 o          1 J1A      -0.488000
     71 N9           9.4130    -4.0220    -2.3710 nv         1 J1A      -1.058200
     72 H16          1.5140     2.5150    -0.4230 h1         1 J1A       0.043200
     73 H16A         2.7230     3.6980     0.0650 h1         1 J1A       0.043200
@<TRIPOS>BOND
     1     1     3 1   
     2     1     5 1   
     3     1    20 1   
     4     1    38 1   
     5     2    10 1   
     6     2    12 1   
     7     2    19 1   
     8     3    10 1   
     9     4    20 1   
    10     4    22 1   
    11     5     7 1   
    12     5     8 1   
    13     5    39 1   
    14     6    12 2   
    15     6    14 1   
    16     7    40 1   
    17     8     9 1   
    18     8    10 1   
    19     8    41 1   
    20     9    44 1   
    21    10    45 1   
    22    11    16 ar  
    23    11    17 ar  
    24    12    46 1   
    25    13    17 ar  
    26    13    19 ar  
    27    14    16 ar  
    28    14    19 ar  
    29    15    26 1   
    30    15    27 1   
    31    15    68 1   
    32    16    67 1   
    33    17    47 1   
    34    18    30 2   
    35    18    34 1   
    36    20    50 1   
    37    20    51 1   
    38    21    30 1   
    39    21    31 1   
    40    21    69 1   
    41    22    24 1   
    42    22    28 1   
    43    22    52 1   
    44    23    32 ar  
    45    23    35 ar  
    46    24    26 1   
    47    24    53 1   
    48    24    54 1   
    49    25    33 ar  
    50    25    34 ar  
    51    26    55 1   
    52    26    56 1   
    53    27    28 1   
    54    27    57 1   
    55    27    58 1   
    56    28    59 1   
    57    28    60 1   
    58    29    32 1   
    59    29    37 1   
    60    29    61 1   
    61    29    62 1   
    62    30    71 1   
    63    31    35 1   
    64    31    70 2   
    65    32    33 ar  
    66    33    63 1   
    67    34    35 ar  
    68    36    37 1   
    69    36    64 1   
    70    36    65 1   
    71    36    68 1   
    72    37    66 1   
    73    42    67 1   
    74    43    67 1   
    75    48    71 1   
    76    49    71 1   
    77    68    72 1   
    78    68    73 1   
@<TRIPOS>SUBSTRUCTURE
     1 J1A         1 TEMP              0 ****  ****    0 ROOT
