@<TRIPOS>MOLECULE
J1A
   73    78     1     0     0
SMALL
bcc


@<TRIPOS>ATOM
      1 C1          -5.3630     2.3820    -0.4570 c5         1 J1A       0.154100
      2 N1          -4.4520    -0.9080    -0.3230 na         1 J1A      -0.267000
      3 O1          -5.1380     1.1480    -1.1450 os         1 J1A      -0.382600
      4 S1          -2.8190     3.0210    -1.2290 ss         1 J1A      -0.304200
      5 C2          -6.3460     2.0430     0.6550 c5         1 J1A       0.087100
      6 N2          -2.3870    -1.7410    -0.1980 nc         1 J1A      -0.553100
      7 O2          -7.6430     2.0230     0.1220 oh         1 J1A      -0.580800
      8 C3          -5.8850     0.6280     1.0190 c5         1 J1A       0.055100
      9 O3          -6.8630    -0.1680     1.6180 oh         1 J1A      -0.566800
     10 C4          -5.5260     0.0610    -0.3600 c5         1 J1A       0.267800
     11 N4          -4.2920    -4.8950    -0.1840 nb         1 J1A      -0.831000
     12 C5          -3.1070    -0.6600    -0.2690 cd         1 J1A       0.408700
     13 N5          -5.7160    -2.9810    -0.3170 nb         1 J1A      -0.740000
     14 C6          -3.3020    -2.7610    -0.2000 ca         1 J1A      -0.230200
     15 N6           1.2860     4.5020     0.2720 n3         1 J1A      -0.727600
     16 C7          -3.1740    -4.1610    -0.1480 ca         1 J1A       0.777200
     17 C8          -5.4690    -4.2780    -0.2670 ca         1 J1A       0.704900
     18 N8           8.1630    -2.5090    -0.6250 nc         1 J1A      -0.778700
     19 C9          -4.5940    -2.2650    -0.2800 ca         1 J1A       0.460800
     20 C10         -4.0660     2.9600     0.0860 c3         1 J1A      -0.023300
     21 N10          6.4060    -3.9030     0.0840 ns         1 J1A      -0.529400
     22 C11         -1.5270     4.0160    -0.4160 c6         1 J1A       0.028400
     23 N11          5.5020    -0.5300     0.8790 nb         1 J1A      -0.538000
     24 C12         -0.8460     3.2710     0.7250 c6         1 J1A      -0.107900
     25 N12          8.0020    -0.2380    -0.2990 nb         1 J1A      -0.643000
     26 C13          0.3200     4.0960     1.2800 c6         1 J1A       0.171800
     27 C14          0.6250     5.2160    -0.8040 c6         1 J1A       0.171800
     28 C15         -0.5050     4.4280    -1.4700 c6         1 J1A      -0.107900
     29 C18          5.2780     1.8650     1.2080 c3         1 J1A       0.124500
     30 C19          7.6300    -3.6920    -0.4910 cd         1 J1A       0.755800
     31 C20          5.5980    -2.9060     0.5840 c          1 J1A       0.635000
     32 C21          6.0470     0.6630     0.7450 ca         1 J1A       0.246300
     33 C22          7.3110     0.7850     0.1470 ca         1 J1A       0.346900
     34 C25          7.4540    -1.4540    -0.1660 ca         1 J1A       0.591000
     35 C26          6.1880    -1.5740     0.4360 ca         1 J1A       0.149500
     36 C27          3.3270     3.2220     0.7750 c3         1 J1A       0.155800
     37 N28          4.1410     2.1030     0.3390 n7         1 J1A      -0.794200
     38 H1          -5.7970     3.0850    -1.1730 h1         1 J1A       0.109700
     39 H2          -6.2600     2.7370     1.5010 h1         1 J1A       0.055700
     40 HO2         -8.1790     1.4350     0.6680 ho         1 J1A       0.426000
     41 H3          -4.9820     0.6870     1.6390 h1         1 J1A       0.056700
     42 HN3         -1.9400    -5.7780    -0.0820 hn         1 J1A       0.451300
     43 HN3A        -1.1340    -4.2520    -0.0910 hn         1 J1A       0.451300
     44 HO3         -6.8750     0.0130     2.5630 ho         1 J1A       0.415000
     45 H4          -6.3910    -0.4540    -0.7920 h2         1 J1A       0.122700
     46 H5          -2.7110     0.3450    -0.3220 h5         1 J1A       0.082800
     47 H8          -6.3340    -4.9310    -0.2980 h5         1 J1A       0.044100
     48 HN9          9.1770    -4.6620    -1.3580 hn         1 J1A       0.458800
     49 HN9A         7.9080    -5.7020    -0.8290 hn         1 J1A       0.458800
     50 H10         -4.2610     3.9730     0.4430 h1         1 J1A       0.062200
     51 H10A        -3.6920     2.3790     0.9330 h1         1 J1A       0.062200
     52 H11         -2.0080     4.9210    -0.0260 h1         1 J1A       0.061700
     53 H12         -1.5530     3.0700     1.5330 hc         1 J1A       0.057450
     54 H12A        -0.4930     2.3020     0.3610 hc         1 J1A       0.057450
     55 H13          0.8270     3.5320     2.0670 h1         1 J1A       0.052950
     56 H13A        -0.0770     4.9990     1.7570 h1         1 J1A       0.052950
     57 H14          0.2110     6.1440    -0.3930 h1         1 J1A       0.052950
     58 H14A         1.3680     5.5060    -1.5490 h1         1 J1A       0.052950
     59 H15         -0.1010     3.5400    -1.9680 hc         1 J1A       0.057450
     60 H15A        -0.9780     5.0410    -2.2410 hc         1 J1A       0.057450
     61 H18          4.9060     1.6820     2.2190 h1         1 J1A       0.044700
     62 H18A         5.9600     2.7260     1.2750 h1         1 J1A       0.044700
     63 H22          7.7590     1.7680     0.0340 h4         1 J1A       0.028100
     64 H27          3.8900     4.1650     0.8510 h1         1 J1A       0.036700
     65 H27A         2.9580     2.9980     1.7810 h1         1 J1A       0.036700
     66 HN28         4.4820     2.2900    -0.5980 hn         1 J1A       0.348800
     67 N3          -1.9920    -4.7740    -0.0570 nv         1 J1A      -0.955500
     68 C16          2.1530     3.4240    -0.1740 c3         1 J1A       0.165800
     69 HN10         6.0530    -4.8500     0.1560 hn         1 J1A       0.325500
     70 O4           4.5210    -3.1490     1.0850 o          1 J1A      -0.563500
     71 N9           8.2770    -4.7720    -0.9240 nv         1 J1A      -0.947800
     72 H16          1.6290     2.4660    -0.2970 h1         1 J1A       0.043200
     73 H16A         2.5450     3.6840    -1.1620 h1         1 J1A       0.043200
@<TRIPOS>BOND
     1     1     3 1   
     2     1     5 1   
     3     1    20 1   
     4     1    38 1   
     5     2    10 1   
     6     2    12 1   
     7     2    19 1   
     8     3    10 1   
     9     4    20 1   
    10     4    22 1   
    11     5     7 1   
    12     5     8 1   
    13     5    39 1   
    14     6    12 2   
    15     6    14 1   
    16     7    40 1   
    17     8     9 1   
    18     8    10 1   
    19     8    41 1   
    20     9    44 1   
    21    10    45 1   
    22    11    16 ar  
    23    11    17 ar  
    24    12    46 1   
    25    13    17 ar  
    26    13    19 ar  
    27    14    16 ar  
    28    14    19 ar  
    29    15    26 1   
    30    15    27 1   
    31    15    68 1   
    32    16    67 1   
    33    17    47 1   
    34    18    30 2   
    35    18    34 1   
    36    20    50 1   
    37    20    51 1   
    38    21    30 1   
    39    21    31 1   
    40    21    69 1   
    41    22    24 1   
    42    22    28 1   
    43    22    52 1   
    44    23    32 ar  
    45    23    35 ar  
    46    24    26 1   
    47    24    53 1   
    48    24    54 1   
    49    25    33 ar  
    50    25    34 ar  
    51    26    55 1   
    52    26    56 1   
    53    27    28 1   
    54    27    57 1   
    55    27    58 1   
    56    28    59 1   
    57    28    60 1   
    58    29    32 1   
    59    29    37 1   
    60    29    61 1   
    61    29    62 1   
    62    30    71 1   
    63    31    35 1   
    64    31    70 2   
    65    32    33 ar  
    66    33    63 1   
    67    34    35 ar  
    68    36    37 1   
    69    36    64 1   
    70    36    65 1   
    71    36    68 1   
    72    37    66 1   
    73    42    67 1   
    74    43    67 1   
    75    48    71 1   
    76    49    71 1   
    77    68    72 1   
    78    68    73 1   
@<TRIPOS>SUBSTRUCTURE
     1 J1A         1 TEMP              0 ****  ****    0 ROOT
