@<TRIPOS>MOLECULE
J1B
   81    86     1     0     0
SMALL
abcg2


@<TRIPOS>ATOM
      1 C1           4.0290     0.2100    -2.3320 c5         1 J1B       0.180300
      2 N1           6.5540     0.5870    -0.0350 na         1 J1B      -0.293300
      3 O1           4.6390     0.9710    -1.2830 os         1 J1B      -0.431000
      4 S1           2.4730    -0.7310    -0.2850 ss         1 J1B      -0.396000
      5 C2           5.1450    -0.0560    -3.3330 c5         1 J1B       0.111300
      6 N2           6.7650    -0.3840     1.9620 nc         1 J1B      -0.557100
      7 O2           5.2800     1.0640    -4.1660 oh         1 J1B      -0.702000
      8 C3           6.3480    -0.1870    -2.3940 c5         1 J1B       0.079300
      9 O3           7.5850     0.0740    -2.9850 oh         1 J1B      -0.690000
     10 C4           6.0330     0.8870    -1.3480 c5         1 J1B       0.318300
     11 N4           9.6740     1.8720     2.1010 nb         1 J1B      -0.304000
     12 C5           6.0640    -0.3180     0.8690 cd         1 J1B       0.410700
     13 N5           8.4700     2.0780     0.0480 nb         1 J1B      -0.214000
     14 C6           7.7760     0.5220     1.7750 ca         1 J1B      -0.100600
     15 N6          -1.3100    -3.3520     0.1860 n3         1 J1B      -0.725600
     16 C7           8.8540     0.9310     2.5810 ca         1 J1B       0.450900
     17 C8           9.4390     2.3800     0.8930 ca         1 J1B       0.179900
     18 N8          -9.6570     2.0980     0.8910 nc         1 J1B      -0.772300
     19 C9           7.6620     1.1400     0.5400 ca         1 J1B       0.135500
     20 C10          3.4250    -1.0750    -1.7920 c3         1 J1B       0.023600
     21 N10         -7.9280     3.4330     1.7240 ns         1 J1B      -0.452400
     22 C11          1.3430    -2.1630    -0.2690 c6         1 J1B       0.077300
     23 N11         -6.4710     0.3010     0.5790 nf         1 J1B      -0.459300
     24 C12          0.7720    -2.3230     1.1340 c6         1 J1B      -0.106400
     25 N12         -9.1210     0.0570    -0.0270 nu         1 J1B      -0.784200
     26 C13         -0.2340    -3.4780     1.1530 c6         1 J1B       0.170800
     27 C14         -0.7650    -3.1930    -1.1530 c6         1 J1B       0.170800
     28 C15          0.2180    -2.0260    -1.2850 c6         1 J1B      -0.106400
     29 C18         -5.9160    -1.8570    -0.3130 c3         1 J1B       0.149500
     30 C19         -9.2350     3.1970     1.4700 cd         1 J1B       0.765800
     31 C20         -6.8960     2.5270     1.4450 c          1 J1B       0.617200
     32 C21         -6.8510    -0.7050    -0.0970 c2         1 J1B       0.340300
     33 C22         -8.1970    -0.7460    -0.8170 c6         1 J1B       0.174900
     34 C23         -8.7720    -2.1540    -0.9260 c3         1 J1B      -0.105600
     35 C24         -8.0090    -0.1430    -2.2170 c3         1 J1B      -0.105600
     36 C25         -8.7140     1.2020     0.5480 cc         1 J1B       0.448600
     37 C26         -7.3520     1.3470     0.7990 cd         1 J1B      -0.208600
     38 C27         -3.6610    -2.6570    -0.0950 c3         1 J1B       0.161800
     39 N28         -4.6340    -1.6640     0.3120 n7         1 J1B      -0.855400
     40 H1           3.2360     0.8230    -2.7680 h1         1 J1B       0.108700
     41 H2           4.9700    -0.9760    -3.9070 h1         1 J1B       0.054700
     42 HO2          6.1750     1.0610    -4.5260 ho         1 J1B       0.524000
     43 H3           6.3310    -1.1760    -1.9200 h1         1 J1B       0.054700
     44 HN3          9.8410     0.7650     4.3530 hn         1 J1B       0.506000
     45 HN3A         8.4740    -0.2750     4.1860 hn         1 J1B       0.506000
     46 HO3          7.9180    -0.7380    -3.3800 ho         1 J1B       0.514000
     47 H4           6.4780     1.8430    -1.6430 h2         1 J1B       0.124700
     48 H5           5.1610    -0.8830     0.6790 h5         1 J1B       0.080800
     49 H8          10.1390     3.1410     0.5640 h5         1 J1B       0.045100
     50 HN9        -11.0960     3.9420     1.7110 hn         1 J1B       0.507000
     51 HN9A        -9.8580     4.9360     2.3650 hn         1 J1B       0.507000
     52 H10          2.7640    -1.4920    -2.5540 h1         1 J1B       0.061700
     53 H10A         4.1890    -1.8280    -1.5830 h1         1 J1B       0.061700
     54 H11          1.9440    -3.0500    -0.5010 h1         1 J1B       0.058700
     55 H12          1.5720    -2.5230     1.8510 hc         1 J1B       0.056950
     56 H12A         0.2860    -1.3940     1.4500 hc         1 J1B       0.056950
     57 HN12       -10.1020    -0.0110    -0.2560 hn         1 J1B       0.495000
     58 H13         -0.6630    -3.5820     2.1520 h1         1 J1B       0.051950
     59 H13A         0.3020    -4.4110     0.9450 h1         1 J1B       0.051950
     60 H14         -0.2540    -4.1230    -1.4250 h1         1 J1B       0.051950
     61 H14A        -1.5770    -3.0730    -1.8710 h1         1 J1B       0.051950
     62 H15         -0.2990    -1.0760    -1.1250 hc         1 J1B       0.056950
     63 H15A         0.6100    -2.0020    -2.3040 hc         1 J1B       0.056950
     64 H18         -6.3740    -2.7690     0.0880 h1         1 J1B       0.030700
     65 H18A        -5.8410    -2.0380    -1.4020 h1         1 J1B       0.030700
     66 H23         -9.7550    -2.1160    -1.4000 hc         1 J1B       0.046200
     67 H23A        -8.1400    -2.7920    -1.5430 hc         1 J1B       0.046200
     68 H23B        -8.8860    -2.6190     0.0530 hc         1 J1B       0.046200
     69 H24         -7.6340     0.8800    -2.1570 hc         1 J1B       0.046200
     70 H24A        -7.3040    -0.7310    -2.8050 hc         1 J1B       0.046200
     71 H24B        -8.9600    -0.1270    -2.7530 hc         1 J1B       0.046200
     72 H27         -3.5570    -2.7150    -1.1910 h1         1 J1B       0.029200
     73 H27A        -4.0030    -3.6430     0.2320 h1         1 J1B       0.029200
     74 HN28        -4.2940    -0.7350     0.0930 hn         1 J1B       0.433000
     75 N3           9.0840     0.4180     3.7900 nv         1 J1B      -1.067900
     76 C16         -2.3130    -2.3650     0.5490 c3         1 J1B       0.165800
     77 HN10        -7.6550     4.2980     2.1710 hn         1 J1B       0.324500
     78 O5          -5.7480     2.8140     1.7610 o          1 J1B      -0.528000
     79 N9         -10.1150     4.1460     1.8000 nv         1 J1B      -1.052200
     80 H16         -2.4430    -2.3950     1.6330 h1         1 J1B       0.044200
     81 H16A        -2.0170    -1.3310     0.3060 h1         1 J1B       0.044200
@<TRIPOS>BOND
     1     1     3 1   
     2     1     5 1   
     3     1    20 1   
     4     1    40 1   
     5     2    10 1   
     6     2    12 1   
     7     2    19 1   
     8     3    10 1   
     9     4    20 1   
    10     4    22 1   
    11     5     7 1   
    12     5     8 1   
    13     5    41 1   
    14     6    12 2   
    15     6    14 1   
    16     7    42 1   
    17     8     9 1   
    18     8    10 1   
    19     8    43 1   
    20     9    46 1   
    21    10    47 1   
    22    11    16 ar  
    23    11    17 ar  
    24    12    48 1   
    25    13    17 ar  
    26    13    19 ar  
    27    14    16 ar  
    28    14    19 ar  
    29    15    26 1   
    30    15    27 1   
    31    15    76 1   
    32    16    75 1   
    33    17    49 1   
    34    18    30 2   
    35    18    36 1   
    36    20    52 1   
    37    20    53 1   
    38    21    30 1   
    39    21    31 1   
    40    21    77 1   
    41    22    24 1   
    42    22    28 1   
    43    22    54 1   
    44    23    32 2   
    45    23    37 1   
    46    24    26 1   
    47    24    55 1   
    48    24    56 1   
    49    25    33 1   
    50    25    36 1   
    51    25    57 1   
    52    26    58 1   
    53    26    59 1   
    54    27    28 1   
    55    27    60 1   
    56    27    61 1   
    57    28    62 1   
    58    28    63 1   
    59    29    32 1   
    60    29    39 1   
    61    29    64 1   
    62    29    65 1   
    63    30    79 1   
    64    31    37 1   
    65    31    78 2   
    66    32    33 1   
    67    33    34 1   
    68    33    35 1   
    69    34    66 1   
    70    34    67 1   
    71    34    68 1   
    72    35    69 1   
    73    35    70 1   
    74    35    71 1   
    75    36    37 2   
    76    38    39 1   
    77    38    72 1   
    78    38    73 1   
    79    38    76 1   
    80    39    74 1   
    81    44    75 1   
    82    45    75 1   
    83    50    79 1   
    84    51    79 1   
    85    76    80 1   
    86    76    81 1   
@<TRIPOS>SUBSTRUCTURE
     1 J1B         1 TEMP              0 ****  ****    0 ROOT
