@<TRIPOS>MOLECULE
J1B
   81    86     1     0     0
SMALL
No Charge or Current Charge


@<TRIPOS>ATOM
      1 C1           4.8210     2.4240    -1.9460 c5         1 J1B       0.180300
      2 N1           6.0870     0.2180     0.0810 na         1 J1B      -0.293300
      3 O1           5.6230     2.3990    -0.7410 os         1 J1B      -0.431000
      4 S1           2.4860     1.7880    -0.4380 ss         1 J1B      -0.396000
      5 C2           5.8640     2.0730    -3.0500 c5         1 J1B       0.111300
      6 N2           5.0340    -0.7730     1.8850 nc         1 J1B      -0.557100
      7 O2           6.7610     3.1490    -3.3450 oh         1 J1B      -0.702000
      8 C3           6.6530     0.9210    -2.3540 c5         1 J1B       0.079300
      9 O3           8.0080     0.8690    -2.8530 oh         1 J1B      -0.690000
     10 C4           6.5410     1.2830    -0.8170 c5         1 J1B       0.318300
     11 N4           6.7370    -3.8110     0.5670 nb         1 J1B      -0.304000
     12 C5           5.2540     0.3690     1.2060 cd         1 J1B       0.410700
     13 N5           7.2100    -1.8310    -0.7410 nb         1 J1B      -0.214000
     14 C6           5.7770    -1.6900     1.1510 ca         1 J1B      -0.100600
     15 N6          -0.2200    -1.8920     0.6440 n3         1 J1B      -0.725600
     16 C7           5.9570    -3.0720     1.3700 ca         1 J1B       0.450900
     17 C8           7.3280    -3.1490    -0.4550 ca         1 J1B       0.179900
     18 N8         -10.0010     0.9940     0.4200 nc         1 J1B      -0.772300
     19 C9           6.4180    -1.1150     0.0820 ca         1 J1B       0.135500
     20 C10          3.6340     1.4230    -1.8480 c3         1 J1B       0.023600
     21 N10         -9.2650     2.8620    -0.8050 ns         1 J1B      -0.452400
     22 C11          1.8930     0.0800    -0.0490 c6         1 J1B       0.077300
     23 N11         -6.6040     0.2640    -0.8080 nf         1 J1B      -0.459300
     24 C12          1.2800     0.0010     1.3680 c6         1 J1B      -0.106400
     25 N12         -8.7220    -0.8040     0.6910 nu         1 J1B      -0.784200
     26 C13          0.7640    -1.4310     1.6650 c6         1 J1B       0.170800
     27 C14          0.3900    -1.8650    -0.7190 c6         1 J1B       0.170800
     28 C15          0.8920    -0.4500    -1.1030 c6         1 J1B      -0.106400
     29 C18         -5.1340    -1.7140    -0.6330 c3         1 J1B       0.149500
     30 C19        -10.1430     2.1810    -0.0790 cd         1 J1B       0.765800
     31 C20         -8.0530     2.3710    -1.1360 c          1 J1B       0.617200
     32 C21         -6.4500    -0.9700    -0.3560 c2         1 J1B       0.340300
     33 C22         -7.5830    -1.7100     0.4310 c6         1 J1B       0.174900
     34 C23         -7.0590    -2.2200     1.8040 c3         1 J1B      -0.105600
     35 C24         -8.1140    -2.9170    -0.3940 c3         1 J1B      -0.105600
     36 C25         -8.7990     0.4260     0.1410 cc         1 J1B       0.448600
     37 C26         -7.7820     1.0060    -0.6110 cd         1 J1B      -0.208600
     38 C27         -2.6820    -1.8190    -0.1240 c3         1 J1B       0.161800
     39 N28         -3.9840    -1.1610     0.1330 n7         1 J1B      -0.855400
     40 H1           4.4120     3.4330    -2.0880 h1         1 J1B       0.108700
     41 H2           5.3730     1.7240    -3.9700 h1         1 J1B       0.054700
     42 HO2          7.6410     2.6910    -3.3430 ho         1 J1B       0.524000
     43 H3           6.1440    -0.0330    -2.5540 h1         1 J1B       0.054700
     44 HN3          5.7670    -4.6250     2.6830 hn         1 J1B       0.506000
     45 HN3A         4.9690    -3.1600     3.1430 hn         1 J1B       0.506000
     46 HO3          8.3820    -0.0120    -2.6060 ho         1 J1B       0.514000
     47 H4           7.5200     1.5980    -0.4320 h2         1 J1B       0.124700
     48 H5           4.8480     1.3380     1.4730 h5         1 J1B       0.080800
     49 H8           7.9650    -3.7370    -1.1150 h5         1 J1B       0.045100
     50 HN9        -11.8230     2.2530     0.8880 hn         1 J1B       0.507000
     51 HN9A       -11.2910     3.7610     0.2980 hn         1 J1B       0.507000
     52 H10          3.0590     1.4570    -2.7820 h1         1 J1B       0.061700
     53 H10A         4.0160     0.4010    -1.7350 h1         1 J1B       0.061700
     54 H11          2.7790    -0.5720    -0.0620 h1         1 J1B       0.058700
     55 H12          2.0360     0.2780     2.1140 hc         1 J1B       0.056950
     56 H12A         0.4650     0.7280     1.4680 hc         1 J1B       0.056950
     57 HN12        -9.5910    -1.1380     1.0980 hn         1 J1B       0.495000
     58 H13          0.3190    -1.4560     2.6710 h1         1 J1B       0.051950
     59 H13A         1.6260    -2.1150     1.6870 h1         1 J1B       0.051950
     60 H14          1.2470    -2.5550    -0.7510 h1         1 J1B       0.051950
     61 H14A        -0.3160    -2.2230    -1.4820 h1         1 J1B       0.051950
     62 H15          0.0440     0.2410    -1.2010 hc         1 J1B       0.056950
     63 H15A         1.3730    -0.4910    -2.0890 hc         1 J1B       0.056950
     64 H18         -5.2520    -2.7800    -0.4000 h1         1 J1B       0.030700
     65 H18A        -4.9260    -1.6520    -1.7100 h1         1 J1B       0.030700
     66 H23         -7.8560    -2.6980     2.3850 hc         1 J1B       0.046200
     67 H23A        -6.2560    -2.9570     1.6870 hc         1 J1B       0.046200
     68 H23B        -6.6610    -1.3930     2.4040 hc         1 J1B       0.046200
     69 H24         -8.4860    -2.5920    -1.3740 hc         1 J1B       0.046200
     70 H24A        -7.3340    -3.6680    -0.5710 hc         1 J1B       0.046200
     71 H24B        -8.9390    -3.4240     0.1210 hc         1 J1B       0.046200
     72 H27         -2.4160    -1.7090    -1.1830 h1         1 J1B       0.029200
     73 H27A        -2.7560    -2.8930     0.0910 h1         1 J1B       0.029200
     74 HN28        -3.8980    -0.1640    -0.1080 hn         1 J1B       0.433000
     75 N3           5.3710    -3.7320     2.4040 nv         1 J1B      -1.067900
     76 C16         -1.5500    -1.2160     0.7560 c3         1 J1B       0.165800
     77 HN10        -9.4970     3.7740    -1.1610 hn         1 J1B       0.324500
     78 O5          -7.2690     3.0190    -1.8140 o          1 J1B      -0.528000
     79 N9         -11.2970     2.7560     0.1850 nv         1 J1B      -1.052200
     80 H16         -1.8870    -1.2730     1.8000 h1         1 J1B       0.044200
     81 H16A        -1.4600    -0.1490     0.5150 h1         1 J1B       0.044200
@<TRIPOS>BOND
     1     1     3 1   
     2     1     5 1   
     3     1    20 1   
     4     1    40 1   
     5     2    10 1   
     6     2    12 1   
     7     2    19 1   
     8     3    10 1   
     9     4    20 1   
    10     4    22 1   
    11     5     7 1   
    12     5     8 1   
    13     5    41 1   
    14     6    12 2   
    15     6    14 1   
    16     7    42 1   
    17     8     9 1   
    18     8    10 1   
    19     8    43 1   
    20     9    46 1   
    21    10    47 1   
    22    11    16 ar  
    23    11    17 ar  
    24    12    48 1   
    25    13    17 ar  
    26    13    19 ar  
    27    14    16 ar  
    28    14    19 ar  
    29    15    26 1   
    30    15    27 1   
    31    15    76 1   
    32    16    75 1   
    33    17    49 1   
    34    18    30 2   
    35    18    36 1   
    36    20    52 1   
    37    20    53 1   
    38    21    30 1   
    39    21    31 1   
    40    21    77 1   
    41    22    24 1   
    42    22    28 1   
    43    22    54 1   
    44    23    32 2   
    45    23    37 1   
    46    24    26 1   
    47    24    55 1   
    48    24    56 1   
    49    25    33 1   
    50    25    36 1   
    51    25    57 1   
    52    26    58 1   
    53    26    59 1   
    54    27    28 1   
    55    27    60 1   
    56    27    61 1   
    57    28    62 1   
    58    28    63 1   
    59    29    32 1   
    60    29    39 1   
    61    29    64 1   
    62    29    65 1   
    63    30    79 1   
    64    31    37 1   
    65    31    78 2   
    66    32    33 1   
    67    33    34 1   
    68    33    35 1   
    69    34    66 1   
    70    34    67 1   
    71    34    68 1   
    72    35    69 1   
    73    35    70 1   
    74    35    71 1   
    75    36    37 2   
    76    38    39 1   
    77    38    72 1   
    78    38    73 1   
    79    38    76 1   
    80    39    74 1   
    81    44    75 1   
    82    45    75 1   
    83    50    79 1   
    84    51    79 1   
    85    76    80 1   
    86    76    81 1   
@<TRIPOS>SUBSTRUCTURE
     1 J1B         1 TEMP              0 ****  ****    0 ROOT
