@<TRIPOS>MOLECULE
J1C
   80    85     1     0     0
SMALL
abcg2


@<TRIPOS>ATOM
      1 C1          -4.3310     1.1480     2.0880 c5         1 J1C       0.180300
      2 N1          -6.7370     0.5050    -0.2640 na         1 J1C      -0.295300
      3 O1          -5.0210     1.5430     0.8980 os         1 J1C      -0.430000
      4 S1          -2.4690     0.1090     0.3600 ss         1 J1C      -0.399000
      5 C2          -5.4260     0.8830     3.1130 c5         1 J1C       0.110300
      6 N2          -6.6060    -0.8660    -2.0180 nc         1 J1C      -0.559100
      7 O2          -5.8190     2.1010     3.6880 oh         1 J1C      -0.702000
      8 C3          -6.5310     0.3230     2.2130 c5         1 J1C       0.078300
      9 O3          -7.8240     0.4580     2.7210 oh         1 J1C      -0.688000
     10 C4          -6.3700     1.1870     0.9580 c5         1 J1C       0.320300
     11 N4         -10.0670     0.3200    -2.4570 nb         1 J1C      -0.303000
     12 C5          -5.9780    -0.3720    -0.9910 cd         1 J1C       0.409700
     13 N5          -9.0140     1.2960    -0.5480 nb         1 J1C      -0.212000
     14 C6          -7.8490    -0.2900    -1.9670 ca         1 J1C      -0.099600
     15 N6           1.0690    -2.8600     0.1500 n3         1 J1C      -0.729600
     16 C7          -8.9890    -0.4030    -2.7830 ca         1 J1C       0.446900
     17 C8         -10.0170     1.1110    -1.3880 ca         1 J1C       0.178900
     18 N8           9.3930     2.1310    -0.7780 nc         1 J1C      -0.781300
     19 C9          -7.9510     0.5690    -0.8840 ca         1 J1C       0.133500
     20 C10         -3.4720    -0.0860     1.8580 c3         1 J1C       0.023600
     21 N10          7.7100     3.5620     0.0110 ns         1 J1C      -0.455400
     22 C11         -1.4660    -1.4100     0.4450 c6         1 J1C       0.077300
     23 N11          6.4400     0.1720     0.0850 ne         1 J1C      -0.468300
     24 C12         -0.8480    -1.6600    -0.9250 c6         1 J1C      -0.106900
     25 N12          8.9770    -0.1190    -0.8360 nu         1 J1C      -0.790200
     26 C13          0.0380    -2.9070    -0.8690 c6         1 J1C       0.172800
     27 C14          0.4900    -2.6040     1.4590 c6         1 J1C       0.172800
     28 C15         -0.3820    -1.3470     1.5120 c6         1 J1C      -0.106900
     29 C18          5.8560    -2.1160     0.0500 c          1 J1C       0.537800
     30 C19          8.9440     3.3360    -0.5000 cd         1 J1C       0.780800
     31 C20          6.7700     2.5560     0.2650 c          1 J1C       0.624200
     32 C21          6.8630    -1.0150    -0.1220 cf         1 J1C       0.282300
     33 C22          8.3220    -1.3590    -0.4060 c6         1 J1C       0.214900
     34 C23          8.5020    -2.3610    -1.5480 c3         1 J1C      -0.105100
     35 C24          8.9860    -1.8710     0.8770 c3         1 J1C      -0.105100
     36 C25          8.5620     1.1080    -0.5290 cc         1 J1C       0.477600
     37 C26          7.2650     1.2530    -0.0200 cd         1 J1C      -0.228600
     38 C27          3.4760    -2.5670     0.4510 c3         1 J1C       0.102000
     39 N28          4.5920    -1.6920     0.1850 ns         1 J1C      -0.490900
     40 H1          -3.6900     1.9800     2.3900 h1         1 J1C       0.110700
     41 H2          -5.1060     0.1570     3.8720 h1         1 J1C       0.055700
     42 HO2         -6.7190     1.9960     4.0180 ho         1 J1C       0.525000
     43 H3          -6.3050    -0.7220     1.9660 h1         1 J1C       0.054700
     44 HN3         -9.8900    -1.3020    -4.3700 hn         1 J1C       0.504000
     45 HN3A        -8.2650    -1.8010    -4.0820 hn         1 J1C       0.504000
     46 HO3         -8.0080    -0.2860     3.3040 ho         1 J1C       0.514000
     47 H4          -7.0150     2.0700     1.0200 h2         1 J1C       0.122700
     48 H5          -4.9480    -0.5820    -0.7340 h5         1 J1C       0.083800
     49 H8         -10.9220     1.6740    -1.1840 h5         1 J1C       0.045100
     50 HN9         10.6280     4.2480    -1.1400 hn         1 J1C       0.513000
     51 HN9A         9.4140     5.3330    -0.5780 hn         1 J1C       0.513000
     52 H10         -2.8240    -0.2110     2.7270 h1         1 J1C       0.061700
     53 H10A        -4.0790    -0.9920     1.7690 h1         1 J1C       0.061700
     54 H11         -2.1540    -2.2340     0.6680 h1         1 J1C       0.059700
     55 H12         -1.6300    -1.8020    -1.6750 hc         1 J1C       0.057200
     56 H12A        -0.2600    -0.7910    -1.2390 hc         1 J1C       0.057200
     57 HN12         9.9140    -0.2040    -1.2030 hn         1 J1C       0.501000
     58 H13          0.5030    -3.0800    -1.8410 h1         1 J1C       0.053950
     59 H13A        -0.5990    -3.7760    -0.6690 h1         1 J1C       0.053950
     60 H14         -0.1120    -3.4740     1.7460 h1         1 J1C       0.053950
     61 H14A         1.2870    -2.5300     2.2020 h1         1 J1C       0.053950
     62 H15          0.2310    -0.4550     1.3520 hc         1 J1C       0.057200
     63 H15A        -0.8180    -1.2560     2.5090 hc         1 J1C       0.057200
     64 H23          9.5600    -2.4200    -1.8130 hc         1 J1C       0.051867
     65 H23A         8.1730    -3.3550    -1.2660 hc         1 J1C       0.051867
     66 H23B         7.9530    -2.0450    -2.4360 hc         1 J1C       0.051867
     67 H24          8.9120    -1.1310     1.6760 hc         1 J1C       0.051867
     68 H24A         8.5150    -2.7920     1.2130 hc         1 J1C       0.051867
     69 H24B        10.0440    -2.0750     0.7010 hc         1 J1C       0.051867
     70 H27          3.3430    -2.7010     1.5310 h1         1 J1C       0.057200
     71 H27A         3.6830    -3.5500     0.0310 h1         1 J1C       0.057200
     72 HN28         4.4560    -0.6930     0.2420 hn         1 J1C       0.342500
     73 N3          -9.0280    -1.1840    -3.8650 nv         1 J1C      -1.063900
     74 C16          2.2010    -2.0120    -0.1730 c3         1 J1C       0.156800
     75 HN10         7.4140     4.5110     0.1970 hn         1 J1C       0.325500
     76 O4           6.1780    -3.2990     0.0760 o          1 J1C      -0.625100
     77 O5           5.6630     2.8600     0.6870 o          1 J1C      -0.531000
     78 N9           9.7290     4.3880    -0.7130 nv         1 J1C      -1.052200
     79 H16          2.3280    -1.9940    -1.2580 h1         1 J1C       0.040200
     80 H16A         2.0650    -0.9640     0.1370 h1         1 J1C       0.040200
@<TRIPOS>BOND
     1     1     3 1   
     2     1     5 1   
     3     1    20 1   
     4     1    40 1   
     5     2    10 1   
     6     2    12 1   
     7     2    19 1   
     8     3    10 1   
     9     4    20 1   
    10     4    22 1   
    11     5     7 1   
    12     5     8 1   
    13     5    41 1   
    14     6    12 2   
    15     6    14 1   
    16     7    42 1   
    17     8     9 1   
    18     8    10 1   
    19     8    43 1   
    20     9    46 1   
    21    10    47 1   
    22    11    16 ar  
    23    11    17 ar  
    24    12    48 1   
    25    13    17 ar  
    26    13    19 ar  
    27    14    16 ar  
    28    14    19 ar  
    29    15    26 1   
    30    15    27 1   
    31    15    74 1   
    32    16    73 1   
    33    17    49 1   
    34    18    30 2   
    35    18    36 1   
    36    20    52 1   
    37    20    53 1   
    38    21    30 1   
    39    21    31 1   
    40    21    75 1   
    41    22    24 1   
    42    22    28 1   
    43    22    54 1   
    44    23    32 2   
    45    23    37 1   
    46    24    26 1   
    47    24    55 1   
    48    24    56 1   
    49    25    33 1   
    50    25    36 1   
    51    25    57 1   
    52    26    58 1   
    53    26    59 1   
    54    27    28 1   
    55    27    60 1   
    56    27    61 1   
    57    28    62 1   
    58    28    63 1   
    59    29    32 1   
    60    29    39 1   
    61    29    76 2   
    62    30    78 1   
    63    31    37 1   
    64    31    77 2   
    65    32    33 1   
    66    33    34 1   
    67    33    35 1   
    68    34    64 1   
    69    34    65 1   
    70    34    66 1   
    71    35    67 1   
    72    35    68 1   
    73    35    69 1   
    74    36    37 2   
    75    38    39 1   
    76    38    70 1   
    77    38    71 1   
    78    38    74 1   
    79    39    72 1   
    80    44    73 1   
    81    45    73 1   
    82    50    78 1   
    83    51    78 1   
    84    74    79 1   
    85    74    80 1   
@<TRIPOS>SUBSTRUCTURE
     1 J1C         1 TEMP              0 ****  ****    0 ROOT
