@<TRIPOS>MOLECULE
J1C
   80    85     1     0     0
SMALL
No Charge or Current Charge


@<TRIPOS>ATOM
      1 C1          -4.7830     2.5310     1.7110 c5         1 J1C       0.180300
      2 N1          -6.0410     0.2840    -0.2780 na         1 J1C      -0.295300
      3 O1          -5.4970     2.4800     0.4540 os         1 J1C      -0.430000
      4 S1          -2.3840     1.6880     0.4230 ss         1 J1C      -0.399000
      5 C2          -5.9190     2.3060     2.7540 c5         1 J1C       0.110300
      6 N2          -4.9230    -0.8800    -1.9320 nc         1 J1C      -0.559100
      7 O2          -6.7670     3.4470     2.9230 oh         1 J1C      -0.702000
      8 C3          -6.7270     1.1620     2.0670 c5         1 J1C       0.078300
      9 O3          -8.1130     1.2160     2.4690 oh         1 J1C      -0.688000
     10 C4          -6.4870     1.4270     0.5250 c5         1 J1C       0.320300
     11 N4          -6.9520    -3.7100    -0.6110 nb         1 J1C      -0.303000
     12 C5          -5.1090     0.3110    -1.3320 cd         1 J1C       0.409700
     13 N5          -7.3770    -1.6300     0.5510 nb         1 J1C      -0.212000
     14 C6          -5.7970    -1.6970    -1.2260 ca         1 J1C      -0.099600
     15 N6           0.2150    -2.1650    -0.2300 n3         1 J1C      -0.729600
     16 C7          -6.0650    -3.0720    -1.3900 ca         1 J1C       0.446900
     17 C8          -7.5690    -2.9510     0.3250 ca         1 J1C       0.178900
     18 N8           9.5950     1.1850    -0.1120 nc         1 J1C      -0.781300
     19 C9          -6.4730    -1.0190    -0.2420 ca         1 J1C       0.133500
     20 C10         -3.6540     1.4620     1.7550 c3         1 J1C       0.023600
     21 N10          8.7820     2.2250     1.8310 ns         1 J1C      -0.455400
     22 C11         -1.8500    -0.0650     0.1780 c6         1 J1C       0.077300
     23 N11          6.3340    -0.2080     0.6730 ne         1 J1C      -0.468300
     24 C12         -1.1310    -0.2550    -1.1770 c6         1 J1C      -0.106900
     25 N12          8.4260    -0.3830    -1.1610 nu         1 J1C      -0.790200
     26 C13         -0.6630    -1.7220    -1.3520 c6         1 J1C       0.172800
     27 C14         -0.5010    -2.0330     1.0750 c6         1 J1C       0.172800
     28 C15         -0.9630    -0.5770     1.3390 c6         1 J1C      -0.106900
     29 C18          4.8320    -1.7960    -0.4390 c          1 J1C       0.537800
     30 C19          9.6760     2.0190     0.8730 cd         1 J1C       0.780800
     31 C20          7.6170     1.5510     1.8980 c          1 J1C       0.624200
     32 C21          6.1470    -1.0280    -0.3550 cf         1 J1C       0.282300
     33 C22          7.2440    -1.2080    -1.4850 c6         1 J1C       0.214900
     34 C23          6.7020    -0.7380    -2.8640 c3         1 J1C      -0.105100
     35 C24          7.7200    -2.6870    -1.5730 c3         1 J1C      -0.105100
     36 C25          8.4470     0.4620    -0.1150 cc         1 J1C       0.477600
     37 C26          7.4100     0.5590     0.8050 cd         1 J1C      -0.228600
     38 C27          2.6040    -2.1670     0.7160 c3         1 J1C       0.102000
     39 N28          3.9410    -1.5690     0.5970 ns         1 J1C      -0.490900
     40 H1          -4.3240     3.5230     1.8280 h1         1 J1C       0.110700
     41 H2          -5.5150     1.9840     3.7250 h1         1 J1C       0.055700
     42 HO2         -7.6720     3.0410     2.8830 ho         1 J1C       0.525000
     43 H3          -6.2910     0.1940     2.3530 h1         1 J1C       0.054700
     44 HN3         -5.4570    -4.8400    -2.2200 hn         1 J1C       0.504000
     45 HN3A        -4.6360    -3.4260    -2.7940 hn         1 J1C       0.504000
     46 HO3         -8.5230     0.3470     2.2390 ho         1 J1C       0.514000
     47 H4          -7.4150     1.7760     0.0530 h2         1 J1C       0.122700
     48 H5          -4.6070     1.2310    -1.6100 h5         1 J1C       0.083800
     49 H8          -8.2940    -3.4550     0.9620 h5         1 J1C       0.045100
     50 HN9         11.3070     2.6420     0.0400 hn         1 J1C       0.513000
     51 HN9A        10.6950     3.6840     1.2400 hn         1 J1C       0.513000
     52 H10         -3.1490     1.5130     2.7280 h1         1 J1C       0.061700
     53 H10A        -4.0870     0.4580     1.6620 h1         1 J1C       0.061700
     54 H11         -2.7650    -0.6740     0.1540 h1         1 J1C       0.059700
     55 H12         -1.8110     0.0120    -1.9970 hc         1 J1C       0.057200
     56 H12A        -0.2750     0.4290    -1.2500 hc         1 J1C       0.057200
     57 HN12         9.1950    -0.2640    -1.8130 hn         1 J1C       0.501000
     58 H13         -0.1420    -1.8260    -2.3160 h1         1 J1C       0.053950
     59 H13A        -1.5520    -2.3690    -1.4070 h1         1 J1C       0.053950
     60 H14         -1.3910    -2.6820     1.0720 h1         1 J1C       0.053950
     61 H14A         0.1230    -2.3770     1.9110 h1         1 J1C       0.053950
     62 H15         -0.0930     0.0800     1.4690 hc         1 J1C       0.057200
     63 H15A        -1.5220    -0.5400     2.2820 hc         1 J1C       0.057200
     64 H23          7.4780    -0.7880    -3.6370 hc         1 J1C       0.051867
     65 H23A         5.8650    -1.3540    -3.2100 hc         1 J1C       0.051867
     66 H23B         6.3500     0.2990    -2.8160 hc         1 J1C       0.051867
     67 H24          8.0780    -3.0430    -0.6000 hc         1 J1C       0.051867
     68 H24A         6.9210    -3.3610    -1.8990 hc         1 J1C       0.051867
     69 H24B         8.5430    -2.7980    -2.2890 hc         1 J1C       0.051867
     70 H27          2.2590    -2.0180     1.7460 h1         1 J1C       0.057200
     71 H27A         2.6790    -3.2470     0.5370 h1         1 J1C       0.057200
     72 HN28         4.2520    -0.9160     1.3110 hn         1 J1C       0.342500
     73 N3          -5.4490    -3.8310    -2.3360 nv         1 J1C      -1.063900
     74 C16          1.5770    -1.5550    -0.2720 c3         1 J1C       0.156800
     75 HN10         8.9660     2.8870     2.5640 hn         1 J1C       0.325500
     76 O4           4.5400    -2.5740    -1.3410 o          1 J1C      -0.625100
     77 O5           6.8170     1.7630     2.7970 o          1 J1C      -0.531000
     78 N9          10.7780     2.7360     0.8970 nv         1 J1C      -1.052200
     79 H16          1.9850    -1.6720    -1.2850 h1         1 J1C       0.040200
     80 H16A         1.5220    -0.4760    -0.0810 h1         1 J1C       0.040200
@<TRIPOS>BOND
     1     1     3 1   
     2     1     5 1   
     3     1    20 1   
     4     1    40 1   
     5     2    10 1   
     6     2    12 1   
     7     2    19 1   
     8     3    10 1   
     9     4    20 1   
    10     4    22 1   
    11     5     7 1   
    12     5     8 1   
    13     5    41 1   
    14     6    12 2   
    15     6    14 1   
    16     7    42 1   
    17     8     9 1   
    18     8    10 1   
    19     8    43 1   
    20     9    46 1   
    21    10    47 1   
    22    11    16 ar  
    23    11    17 ar  
    24    12    48 1   
    25    13    17 ar  
    26    13    19 ar  
    27    14    16 ar  
    28    14    19 ar  
    29    15    26 1   
    30    15    27 1   
    31    15    74 1   
    32    16    73 1   
    33    17    49 1   
    34    18    30 2   
    35    18    36 1   
    36    20    52 1   
    37    20    53 1   
    38    21    30 1   
    39    21    31 1   
    40    21    75 1   
    41    22    24 1   
    42    22    28 1   
    43    22    54 1   
    44    23    32 2   
    45    23    37 1   
    46    24    26 1   
    47    24    55 1   
    48    24    56 1   
    49    25    33 1   
    50    25    36 1   
    51    25    57 1   
    52    26    58 1   
    53    26    59 1   
    54    27    28 1   
    55    27    60 1   
    56    27    61 1   
    57    28    62 1   
    58    28    63 1   
    59    29    32 1   
    60    29    39 1   
    61    29    76 2   
    62    30    78 1   
    63    31    37 1   
    64    31    77 2   
    65    32    33 1   
    66    33    34 1   
    67    33    35 1   
    68    34    64 1   
    69    34    65 1   
    70    34    66 1   
    71    35    67 1   
    72    35    68 1   
    73    35    69 1   
    74    36    37 2   
    75    38    39 1   
    76    38    70 1   
    77    38    71 1   
    78    38    74 1   
    79    39    72 1   
    80    44    73 1   
    81    45    73 1   
    82    50    78 1   
    83    51    78 1   
    84    74    79 1   
    85    74    80 1   
@<TRIPOS>SUBSTRUCTURE
     1 J1C         1 TEMP              0 ****  ****    0 ROOT
