@<TRIPOS>MOLECULE
J1D
   74    78     1     0     0
SMALL
abcg2


@<TRIPOS>ATOM
      1 C1          -3.9720     0.5570    -1.7220 c5         1 J1D       0.198300
      2 O1          -4.9770    -0.3450    -1.2650 os         1 J1D      -0.444000
      3 C2          -4.7150     1.7550    -2.3060 c5         1 J1D       0.115300
      4 O2          -5.0320     1.4660    -3.6400 oh         1 J1D      -0.700000
      5 C3          -5.9730     1.7630    -1.4330 c5         1 J1D       0.080300
      6 O3          -7.0810     2.3880    -2.0030 oh         1 J1D      -0.689000
      7 C4          -6.2400     0.2640    -1.2930 c5         1 J1D       0.322300
      8 N1          -6.9760    -0.0940    -0.1100 na         1 J1D      -0.292300
      9 C5          -6.5750     0.0260     1.1940 cc         1 J1D       0.420700
     10 N2          -7.4680    -0.3780     2.0460 nd         1 J1D      -0.551100
     11 C6          -8.5220    -0.7880     1.2690 ca         1 J1D      -0.099600
     12 C7          -9.7840    -1.3290     1.5760 ca         1 J1D       0.451900
     13 N3         -10.1960    -1.5360     2.8270 nv         1 J1D      -1.066900
     14 N4         -10.5960    -1.6390     0.5590 nb         1 J1D      -0.304000
     15 C8         -10.1830    -1.4280    -0.6880 ca         1 J1D       0.182900
     16 N5          -9.0310    -0.9270    -1.0980 nb         1 J1D      -0.217000
     17 C9          -8.2350    -0.6240    -0.0760 ca         1 J1D       0.141500
     18 C10         -3.0590     0.9750    -0.5790 c3         1 J1D      -0.333400
     19 S1          -2.3840    -0.4560     0.2770 s6         1 J1D       1.090000
     20 C11         -0.9250     0.2060     1.0770 c3         1 J1D      -0.336400
     21 N6           0.9780    -0.3880     2.5010 ns         1 J1D      -0.506900
     22 C12         -0.2390    -0.8790     1.9070 c3         1 J1D       0.136000
     23 C13          2.1400    -0.3400     1.8330 c          1 J1D       0.582100
     24 C14          3.2990     0.2350     2.6280 c3         1 J1D       0.028000
     25 N7           4.4990     0.1510     1.8510 ns         1 J1D      -0.480900
     26 C15          5.6750     0.6170     2.2890 c          1 J1D       0.539800
     27 O4           5.8250     1.1050     3.4030 o          1 J1D      -0.632100
     28 N8           9.7030    -0.1000    -1.5090 nc         1 J1D      -0.781300
     29 C16          9.3150    -0.3200    -2.7470 cd         1 J1D       0.780800
     30 N9          10.2310    -0.5480    -3.6830 nv         1 J1D      -1.053200
     31 N10          8.0140    -0.3300    -3.1200 ns         1 J1D      -0.455400
     32 C17          6.9430    -0.1470    -2.2380 c          1 J1D       0.621200
     33 O5           5.7970    -0.2160    -2.6580 o          1 J1D      -0.519000
     34 N11          6.4450     0.2120     0.0980 ne         1 J1D      -0.456300
     35 C18          6.7890     0.5120     1.2900 cf         1 J1D       0.279300
     36 C19          8.2130     0.8900     1.6850 c6         1 J1D       0.212900
     37 C20          8.6690     0.3010     3.0190 c3         1 J1D      -0.104600
     38 C21          8.3420     2.4170     1.6970 c3         1 J1D      -0.104600
     39 N12          9.0950     0.3240     0.6590 nu         1 J1D      -0.788200
     40 C22          8.7350     0.1270    -0.6100 cc         1 J1D       0.473600
     41 C23          7.3660     0.1110    -0.9030 cd         1 J1D      -0.226600
     42 O6           2.2670    -0.7240     0.6810 o          1 J1D      -0.580100
     43 O7          -3.3150    -0.8990     1.3150 o          1 J1D      -0.497500
     44 O8          -1.9570    -1.4310    -0.7270 o          1 J1D      -0.497500
     45 H1          -3.3750     0.0580    -2.4880 h1         1 J1D       0.121700
     46 H2          -4.1380     2.6840    -2.2130 h1         1 J1D       0.056700
     47 H3          -5.7770     2.0220    -3.8980 ho         1 J1D       0.525000
     48 H4          -5.7290     2.1900    -0.4510 h1         1 J1D       0.050700
     49 H5          -7.0290     3.3330    -1.8330 ho         1 J1D       0.515000
     50 H6          -6.8360    -0.0920    -2.1400 h2         1 J1D       0.127700
     51 H7          -5.5980     0.4000     1.4580 h5         1 J1D       0.071800
     52 H8         -11.0940    -1.9520     3.0040 hn         1 J1D       0.506500
     53 H9          -9.6000    -1.3350     3.6100 hn         1 J1D       0.506500
     54 H10        -10.8870    -1.7040    -1.4660 h5         1 J1D       0.046100
     55 H11         -2.2130     1.5380    -0.9760 h1         1 J1D       0.098200
     56 H12         -3.5580     1.5910     0.1720 h1         1 J1D       0.098200
     57 H13         -0.2730     0.5790     0.2870 h1         1 J1D       0.101200
     58 H14         -1.2430     1.0430     1.6990 h1         1 J1D       0.101200
     59 H15          0.9310    -0.0240     3.4390 hn         1 J1D       0.319500
     60 H16         -0.8930    -1.2090     2.7120 h1         1 J1D       0.077200
     61 H17         -0.0140    -1.7460     1.2870 h1         1 J1D       0.077200
     62 H18          3.0600     1.2710     2.8940 h1         1 J1D       0.062200
     63 H19          3.3960    -0.3120     3.5710 h1         1 J1D       0.062200
     64 H20          4.4380    -0.1810     0.8990 hn         1 J1D       0.373500
     65 H21          9.9950    -0.6680    -4.6540 hn         1 J1D       0.513500
     66 H22         11.2040    -0.5140    -3.4340 hn         1 J1D       0.513500
     67 H24          8.4750    -0.7710     3.0670 hc         1 J1D       0.051033
     68 H25          9.7450     0.4530     3.1280 hc         1 J1D       0.051033
     69 H26          8.1800     0.7840     3.8580 hc         1 J1D       0.051033
     70 H27          7.6980     2.8520     2.4590 hc         1 J1D       0.051033
     71 H28          9.3720     2.7080     1.9170 hc         1 J1D       0.051033
     72 H29          8.0690     2.8410     0.7290 hc         1 J1D       0.051033
     73 H31         10.0860     0.3410     0.8530 hn         1 J1D       0.500000
     74 H23          7.7750    -0.5110    -4.0860 hn         1 J1D       0.325500
@<TRIPOS>BOND
     1     1     2 1   
     2     1     3 1   
     3     1    18 1   
     4     1    45 1   
     5     2     7 1   
     6     3     4 1   
     7     3     5 1   
     8     3    46 1   
     9     4    47 1   
    10     5     6 1   
    11     5     7 1   
    12     5    48 1   
    13     6    49 1   
    14     7     8 1   
    15     7    50 1   
    16     8     9 1   
    17     8    17 1   
    18     9    10 2   
    19     9    51 1   
    20    10    11 1   
    21    11    12 ar  
    22    11    17 ar  
    23    12    13 1   
    24    12    14 ar  
    25    13    52 1   
    26    13    53 1   
    27    14    15 ar  
    28    15    16 ar  
    29    15    54 1   
    30    16    17 ar  
    31    18    19 1   
    32    18    55 1   
    33    18    56 1   
    34    19    20 1   
    35    19    43 2   
    36    19    44 2   
    37    20    22 1   
    38    20    57 1   
    39    20    58 1   
    40    21    22 1   
    41    21    23 1   
    42    21    59 1   
    43    22    60 1   
    44    22    61 1   
    45    23    24 1   
    46    23    42 2   
    47    24    25 1   
    48    24    62 1   
    49    24    63 1   
    50    25    26 1   
    51    25    64 1   
    52    26    27 2   
    53    26    35 1   
    54    28    29 2   
    55    28    40 1   
    56    29    30 1   
    57    29    31 1   
    58    30    65 1   
    59    30    66 1   
    60    31    32 1   
    61    31    74 1   
    62    32    33 2   
    63    32    41 1   
    64    34    35 2   
    65    34    41 1   
    66    35    36 1   
    67    36    37 1   
    68    36    38 1   
    69    36    39 1   
    70    37    67 1   
    71    37    68 1   
    72    37    69 1   
    73    38    70 1   
    74    38    71 1   
    75    38    72 1   
    76    39    40 1   
    77    39    73 1   
    78    40    41 2   
@<TRIPOS>SUBSTRUCTURE
     1 J1D         1 TEMP              0 ****  ****    0 ROOT
