@<TRIPOS>MOLECULE
J1D
   74    78     1     0     0
SMALL
No Charge or Current Charge


@<TRIPOS>ATOM
      1 C1          -4.4280    -0.0920    -2.3860 c5         1 J1D       0.198300
      2 O1          -5.6190    -0.5400    -1.7040 os         1 J1D      -0.444000
      3 C2          -4.8730     1.2130    -3.1240 c5         1 J1D       0.115300
      4 O2          -5.6480     0.9660    -4.3030 oh         1 J1D      -0.700000
      5 C3          -5.7630     1.8620    -2.0290 c5         1 J1D       0.080300
      6 O3          -6.6570     2.8370    -2.6040 oh         1 J1D      -0.689000
      7 C4          -6.4830     0.5910    -1.4380 c5         1 J1D       0.322300
      8 N1          -6.8440     0.5970    -0.0190 na         1 J1D      -0.292300
      9 C5          -6.1700     1.2660     1.0090 cc         1 J1D       0.420700
     10 N2          -6.7810     1.0900     2.1960 nd         1 J1D      -0.551100
     11 C6          -7.8720     0.2750     1.8770 ca         1 J1D      -0.099600
     12 C7          -8.8770    -0.2490     2.7160 ca         1 J1D       0.451900
     13 N3          -8.9180    -0.0070     4.0530 nv         1 J1D      -1.066900
     14 N4          -9.8520    -1.0310     2.2260 nb         1 J1D      -0.304000
     15 C8          -9.8090    -1.2720     0.8930 ca         1 J1D       0.182900
     16 N5          -8.8860    -0.8090     0.0150 nb         1 J1D      -0.217000
     17 C9          -7.9190    -0.0320     0.5410 ca         1 J1D       0.141500
     18 C10         -3.3050     0.1130    -1.3440 c3         1 J1D      -0.333400
     19 S1          -2.6420    -1.3510    -0.5440 s6         1 J1D       1.090000
     20 C11         -1.2140    -0.7460     0.3660 c3         1 J1D      -0.336400
     21 N6           0.6480    -1.3540     1.8610 ns         1 J1D      -0.506900
     22 C12         -0.5030    -1.8750     1.1260 c3         1 J1D       0.136000
     23 C13          1.8750    -1.0680     1.3000 c          1 J1D       0.582100
     24 C14          2.9240    -0.5020     2.2850 c3         1 J1D       0.028000
     25 N7           4.2140    -0.2200     1.6190 ns         1 J1D      -0.480900
     26 C15          5.3360     0.2950     2.2430 c          1 J1D       0.539800
     27 O4           5.3010     0.5510     3.4430 o          1 J1D      -0.632100
     28 N8           9.8150     0.8820    -1.1110 nc         1 J1D      -0.781300
     29 C16          9.6740     0.4590    -2.3240 cd         1 J1D       0.780800
     30 N9          10.7480     0.5740    -3.0750 nv         1 J1D      -1.053200
     31 N10          8.5850    -0.0590    -2.8760 ns         1 J1D      -0.455400
     32 C17          7.4320    -0.2230    -2.1980 c          1 J1D       0.621200
     33 O5           6.4480    -0.7120    -2.7340 o          1 J1D      -0.519000
     34 N11          6.4560     0.1660     0.0680 ne         1 J1D      -0.456300
     35 C18          6.5530     0.5000     1.3490 cf         1 J1D       0.279300
     36 C19          7.8940     1.0880     1.9560 c6         1 J1D       0.212900
     37 C20          8.4740     0.1380     3.0420 c3         1 J1D      -0.104600
     38 C21          7.6650     2.5050     2.5530 c3         1 J1D      -0.104600
     39 N12          8.9040     1.2180     0.8850 nu         1 J1D      -0.788200
     40 C22          8.6910     0.7600    -0.3610 cc         1 J1D       0.473600
     41 C23          7.4760     0.2340    -0.7800 cd         1 J1D      -0.226600
     42 O6           2.1070    -1.2540     0.1110 o          1 J1D      -0.580100
     43 O7          -3.6240    -1.8300     0.4340 o          1 J1D      -0.497500
     44 O8          -2.1570    -2.2580    -1.5910 o          1 J1D      -0.497500
     45 H1          -4.1110    -0.8580    -3.1100 h1         1 J1D       0.121700
     46 H2          -4.0100     1.8500    -3.3640 h1         1 J1D       0.056700
     47 H3          -6.3270     1.6870    -4.2850 ho         1 J1D       0.525000
     48 H4          -5.1210     2.3410    -1.2770 h1         1 J1D       0.050700
     49 H5          -7.0210     3.3880    -1.8690 ho         1 J1D       0.515000
     50 H6          -7.4240     0.4390    -1.9840 h2         1 J1D       0.127700
     51 H7          -5.2700     1.8450     0.8430 h5         1 J1D       0.071800
     52 H8          -9.4680    -0.6340     4.6340 hn         1 J1D       0.506500
     53 H9          -8.0820     0.3900     4.4750 hn         1 J1D       0.506500
     54 H10        -10.5970    -1.9030     0.4850 h5         1 J1D       0.046100
     55 H11         -2.4460     0.5780    -1.8400 h1         1 J1D       0.098200
     56 H12         -3.6350     0.7700    -0.5340 h1         1 J1D       0.098200
     57 H13         -0.5430    -0.2900    -0.3710 h1         1 J1D       0.101200
     58 H14         -1.5820     0.0190     1.0580 h1         1 J1D       0.101200
     59 H15          0.5450    -1.1740     2.8540 hn         1 J1D       0.319500
     60 H16         -1.1950    -2.3440     1.8410 h1         1 J1D       0.077200
     61 H17         -0.1630    -2.6520     0.4260 h1         1 J1D       0.077200
     62 H18          2.5260     0.4220     2.7220 h1         1 J1D       0.062200
     63 H19          3.0770    -1.2350     3.0870 h1         1 J1D       0.062200
     64 H20          4.3050    -0.4140     0.6230 hn         1 J1D       0.373500
     65 H21         10.5890     0.7740    -4.0540 hn         1 J1D       0.513500
     66 H22         11.4670     1.1350    -2.6400 hn         1 J1D       0.513500
     67 H24          8.6310    -0.8710     2.6400 hc         1 J1D       0.051033
     68 H25          9.4400     0.4990     3.4150 hc         1 J1D       0.051033
     69 H26          7.8100     0.0470     3.9080 hc         1 J1D       0.051033
     70 H27          6.9930     2.4880     3.4180 hc         1 J1D       0.051033
     71 H28          8.6080     2.9520     2.8910 hc         1 J1D       0.051033
     72 H29          7.2280     3.1810     1.8080 hc         1 J1D       0.051033
     73 H31          9.8720     1.4530     1.0860 hn         1 J1D       0.500000
     74 H23          8.6000    -0.3780    -3.8290 hn         1 J1D       0.325500
@<TRIPOS>BOND
     1     1     2 1   
     2     1     3 1   
     3     1    18 1   
     4     1    45 1   
     5     2     7 1   
     6     3     4 1   
     7     3     5 1   
     8     3    46 1   
     9     4    47 1   
    10     5     6 1   
    11     5     7 1   
    12     5    48 1   
    13     6    49 1   
    14     7     8 1   
    15     7    50 1   
    16     8     9 1   
    17     8    17 1   
    18     9    10 2   
    19     9    51 1   
    20    10    11 1   
    21    11    12 ar  
    22    11    17 ar  
    23    12    13 1   
    24    12    14 ar  
    25    13    52 1   
    26    13    53 1   
    27    14    15 ar  
    28    15    16 ar  
    29    15    54 1   
    30    16    17 ar  
    31    18    19 1   
    32    18    55 1   
    33    18    56 1   
    34    19    20 1   
    35    19    43 2   
    36    19    44 2   
    37    20    22 1   
    38    20    57 1   
    39    20    58 1   
    40    21    22 1   
    41    21    23 1   
    42    21    59 1   
    43    22    60 1   
    44    22    61 1   
    45    23    24 1   
    46    23    42 2   
    47    24    25 1   
    48    24    62 1   
    49    24    63 1   
    50    25    26 1   
    51    25    64 1   
    52    26    27 2   
    53    26    35 1   
    54    28    29 2   
    55    28    40 1   
    56    29    30 1   
    57    29    31 1   
    58    30    65 1   
    59    30    66 1   
    60    31    32 1   
    61    31    74 1   
    62    32    33 2   
    63    32    41 1   
    64    34    35 2   
    65    34    41 1   
    66    35    36 1   
    67    36    37 1   
    68    36    38 1   
    69    36    39 1   
    70    37    67 1   
    71    37    68 1   
    72    37    69 1   
    73    38    70 1   
    74    38    71 1   
    75    38    72 1   
    76    39    40 1   
    77    39    73 1   
    78    40    41 2   
@<TRIPOS>SUBSTRUCTURE
     1 J1D         1 TEMP              0 ****  ****    0 ROOT
