@<TRIPOS>MOLECULE
J1E
   65    69     1     0     0
SMALL
No Charge or Current Charge


@<TRIPOS>ATOM
      1 C10          3.5100    -2.4790     0.3030 c6         1 J1E       0.131300
      2 C13          1.0400    -1.1060    -0.5630 c6         1 J1E       0.248300
      3 C15         -1.7800    -1.1980    -0.2440 c3         1 J1E       0.009600
      4 C17         -4.3110    -1.5080     0.0230 c3         1 J1E       0.042600
      5 C20         -8.7610     0.7670     0.3340 ca         1 J1E      -0.075500
      6 C21         -9.0840     1.1920    -0.9750 ca         1 J1E      -0.151000
      7 C22        -10.2850     1.8730    -1.2260 ca         1 J1E       0.168000
      8 C24        -10.8760     1.7270     1.1220 ca         1 J1E      -0.087000
      9 C01          8.9120     1.4920    -0.3620 ca         1 J1E      -0.125000
     10 C02          7.5480     1.4990     0.0080 ca         1 J1E      -0.077500
     11 C03          7.0910     2.5230     0.8720 ca         1 J1E      -0.124000
     12 C04          7.9770     3.5000     1.3630 ca         1 J1E      -0.087000
     13 C05          9.3310     3.4710     0.9930 ca         1 J1E      -0.150000
     14 C06          9.7920     2.4680     0.1300 ca         1 J1E       0.169000
     15 C07          6.6330     0.4770    -0.5310 cc         1 J1E       0.248500
     16 C08          5.3590     0.3150    -0.0850 cd         1 J1E      -0.185000
     17 C09          2.0850    -3.1240     0.2690 c6         1 J1E       0.154300
     18 C11          3.5690    -1.3760    -0.8000 c6         1 J1E       0.066300
     19 C12          2.4070    -0.3460    -0.6260 c6         1 J1E       0.148300
     20 C14          1.8940    -4.2430     1.3450 c3         1 J1E       0.172600
     21 C16         -3.1310    -0.5100     0.0550 c3         1 J1E       0.161300
     22 C19         -6.5250    -0.2860    -0.2980 cc         1 J1E      -0.180000
     23 F01         11.0940     2.4420    -0.2310 f          1 J1E      -0.178000
     24 N01          6.9500    -0.4300    -1.5010 nc         1 J1E      -0.348000
     25 N02          5.8950    -1.1800    -1.7060 nd         1 J1E      -0.197800
     26 N03          4.9080    -0.7370    -0.8560 na         1 J1E       0.131800
     27 N04         -5.5850    -0.9250     0.4700 na         1 J1E       0.128800
     28 N05         -5.9590    -0.9830     1.7790 nc         1 J1E      -0.199800
     29 N06         -7.1210    -0.3910     1.8590 nd         1 J1E      -0.347000
     30 O01          1.0700    -2.1070     0.4720 os         1 J1E      -0.405000
     31 O02          3.8040    -1.9230     1.6070 oh         1 J1E      -0.704000
     32 O03          0.5980    -4.8730     1.2830 oh         1 J1E      -0.715000
     33 O04          2.4120     0.6210    -1.7010 oh         1 J1E      -0.705000
     34 O05         -3.3430     0.5330    -0.9100 oh         1 J1E      -0.633000
     35 S01         -0.3850     0.0240    -0.2270 ss         1 J1E      -0.351000
     36 C18         -7.4960     0.0500     0.6040 cd         1 J1E       0.253500
     37 C23        -11.1830     2.1420    -0.1840 ca         1 J1E      -0.148000
     38 C25         -9.6730     1.0440     1.3790 ca         1 J1E      -0.098000
     39 F02        -10.5790     2.2720    -2.4830 f          1 J1E      -0.182000
     40 H08          4.2430    -3.2620     0.0540 h1         1 J1E       0.061700
     41 H11          0.8400    -1.5860    -1.5330 h2         1 J1E       0.060700
     42 H18         -1.5880    -1.9690     0.5140 h1         1 J1E       0.076200
     43 H17         -1.8200    -1.6880    -1.2260 h1         1 J1E       0.076200
     44 H20         -4.4390    -1.8910    -0.9970 h1         1 J1E       0.076700
     45 H19         -4.0780    -2.3630     0.6700 h1         1 J1E       0.076700
     46 H22         -8.4090     0.9990    -1.8040 ha         1 J1E       0.124000
     47 H24        -11.5690     1.9330     1.9360 ha         1 J1E       0.119000
     48 H03          6.0470     2.5790     1.1680 ha         1 J1E       0.112000
     49 H04          7.6110     4.2800     2.0280 ha         1 J1E       0.117000
     50 H05         10.0190     4.2240     1.3690 ha         1 J1E       0.132000
     51 H06          4.7720     0.8210     0.6690 h4         1 J1E       0.176000
     52 H07          1.9260    -3.5850    -0.7160 h1         1 J1E       0.055700
     53 H09          3.4170    -1.8720    -1.7690 h1         1 J1E       0.106700
     54 H10          2.5390     0.1670     0.3390 h1         1 J1E       0.073700
     55 H13          2.6830    -4.9930     1.1990 h1         1 J1E       0.037700
     56 H14          2.0480    -3.7990     2.3380 h1         1 J1E       0.037700
     57 H01         -3.0720    -0.0860     1.0700 h1         1 J1E       0.115700
     58 H21         -6.4250    -0.1270    -1.3610 h4         1 J1E       0.167000
     59 H12          4.7800    -1.9700     1.7370 ho         1 J1E       0.515000
     60 H15          0.5460    -5.5000     2.0430 ho         1 J1E       0.512000
     61 H16          1.6520     1.2300    -1.5420 ho         1 J1E       0.527000
     62 H26         -2.4880     1.0100    -0.9910 ho         1 J1E       0.441000
     63 H23        -12.1110     2.6700    -0.3880 ha         1 J1E       0.132000
     64 H25         -9.4550     0.7310     2.3980 ha         1 J1E       0.139000
     65 H02          9.3000     0.7280    -1.0310 ha         1 J1E       0.152000
@<TRIPOS>BOND
     1     1    17 1   
     2     1    18 1   
     3     1    31 1   
     4     1    40 1   
     5     2    19 1   
     6     2    30 1   
     7     2    35 1   
     8     2    41 1   
     9     3    21 1   
    10     3    35 1   
    11     3    42 1   
    12     3    43 1   
    13     4    21 1   
    14     4    27 1   
    15     4    44 1   
    16     4    45 1   
    17     5     6 ar  
    18     5    36 1   
    19     5    38 ar  
    20     6     7 ar  
    21     6    46 1   
    22     7    37 ar  
    23     7    39 1   
    24     8    37 ar  
    25     8    38 ar  
    26     8    47 1   
    27     9    10 ar  
    28     9    14 ar  
    29     9    65 1   
    30    10    11 ar  
    31    10    15 1   
    32    11    12 ar  
    33    11    48 1   
    34    12    13 ar  
    35    12    49 1   
    36    13    14 ar  
    37    13    50 1   
    38    14    23 1   
    39    15    16 2   
    40    15    24 1   
    41    16    26 1   
    42    16    51 1   
    43    17    20 1   
    44    17    30 1   
    45    17    52 1   
    46    18    19 1   
    47    18    26 1   
    48    18    53 1   
    49    19    33 1   
    50    19    54 1   
    51    20    32 1   
    52    20    55 1   
    53    20    56 1   
    54    21    34 1   
    55    21    57 1   
    56    22    27 1   
    57    22    36 2   
    58    22    58 1   
    59    24    25 2   
    60    25    26 1   
    61    27    28 1   
    62    28    29 2   
    63    29    36 1   
    64    31    59 1   
    65    32    60 1   
    66    33    61 1   
    67    34    62 1   
    68    37    63 1   
    69    38    64 1   
@<TRIPOS>SUBSTRUCTURE
     1 J1E         1 TEMP              0 ****  ****    0 ROOT
