@<TRIPOS>MOLECULE
J1E
   65    69     1     0     0
SMALL
abcg2


@<TRIPOS>ATOM
      1 C10          3.4720    -2.4150     0.6480 c6         1 J1E       0.131300
      2 C13          0.9540    -1.3930    -0.2700 c6         1 J1E       0.248300
      3 C15         -1.8000    -1.3910    -0.5950 c3         1 J1E       0.009600
      4 C17         -4.2780    -1.6620    -0.6600 c3         1 J1E       0.042600
      5 C20         -8.4960     0.8160     0.2130 ca         1 J1E      -0.075500
      6 C21         -8.6480     1.7330    -0.8270 ca         1 J1E      -0.151000
      7 C22         -9.7340     2.5830    -0.8210 ca         1 J1E       0.168000
      8 C24        -10.5300     1.6490     1.2080 ca         1 J1E      -0.087000
      9 C01          8.4520     1.8180    -0.8190 ca         1 J1E      -0.125000
     10 C02          7.2920     1.6360    -0.0670 ca         1 J1E      -0.077500
     11 C03          7.0800     2.4310     1.0600 ca         1 J1E      -0.124000
     12 C04          8.0110     3.3880     1.4280 ca         1 J1E      -0.087000
     13 C05          9.1700     3.5760     0.6860 ca         1 J1E      -0.150000
     14 C06          9.3600     2.7800    -0.4270 ca         1 J1E       0.169000
     15 C07          6.3210     0.6200    -0.4610 cc         1 J1E       0.248500
     16 C08          5.0960     0.3160     0.0830 cd         1 J1E      -0.185000
     17 C09          2.1380    -3.1510     0.7230 c6         1 J1E       0.154300
     18 C11          3.4130    -1.4530    -0.5450 c6         1 J1E       0.066300
     19 C12          2.2060    -0.5240    -0.4610 c6         1 J1E       0.148300
     20 C14          2.0800    -4.1110     1.8900 c3         1 J1E       0.172600
     21 C16         -3.1240    -0.8280    -0.1020 c3         1 J1E       0.161300
     22 C19         -6.3080    -0.1950    -0.6660 cc         1 J1E      -0.180000
     23 F01         10.4730     2.9460    -1.1590 f          1 J1E      -0.178000
     24 N01          6.5260    -0.2250    -1.4980 nc         1 J1E      -0.348000
     25 N02          5.5160    -1.0080    -1.6180 nd         1 J1E      -0.197800
     26 N03          4.6420    -0.6960    -0.6730 na         1 J1E       0.131800
     27 N04         -5.5510    -1.1840    -0.1710 na         1 J1E       0.128800
     28 N05         -6.0640    -1.6550     0.9540 nc         1 J1E      -0.199800
     29 N06         -7.1460    -1.0060     1.1980 nd         1 J1E      -0.347000
     30 O01          1.0750    -2.2250     0.8470 os         1 J1E      -0.405000
     31 O02          3.7050    -1.7180     1.8450 oh         1 J1E      -0.704000
     32 O03          0.9200    -4.8970     1.7660 oh         1 J1E      -0.715000
     33 O04          2.1570     0.2080    -1.6510 oh         1 J1E      -0.705000
     34 O05         -3.2660     0.5350    -0.4070 oh         1 J1E      -0.633000
     35 S01         -0.4610    -0.2990    -0.0330 ss         1 J1E      -0.351000
     36 C18         -7.3500    -0.0870     0.2260 cd         1 J1E       0.253500
     37 C23        -10.6890     2.5660     0.1780 ca         1 J1E      -0.148000
     38 C25         -9.4490     0.7810     1.2320 ca         1 J1E      -0.098000
     39 F02         -9.8600     3.4620    -1.8280 f          1 J1E      -0.182000
     40 H08          4.2590    -3.1520     0.4530 h1         1 J1E       0.061700
     41 H11          0.7910    -1.9810    -1.1870 h2         1 J1E       0.060700
     42 H18         -1.6410    -2.3890    -0.1840 h1         1 J1E       0.076200
     43 H17         -1.7810    -1.4610    -1.6850 h1         1 J1E       0.076200
     44 H20         -4.2960    -1.6250    -1.7500 h1         1 J1E       0.076700
     45 H19         -4.1750    -2.7040    -0.3630 h1         1 J1E       0.076700
     46 H22         -7.9330     1.7930    -1.6370 ha         1 J1E       0.124000
     47 H24        -11.2620     1.6130     2.0040 ha         1 J1E       0.119000
     48 H03          6.1900     2.3060     1.6630 ha         1 J1E       0.112000
     49 H04          7.8380     3.9960     2.3050 ha         1 J1E       0.117000
     50 H05          9.9040     4.3190     0.9670 ha         1 J1E       0.132000
     51 H06          4.5370     0.7370     0.9000 h4         1 J1E       0.176000
     52 H07          2.0310    -3.7300    -0.2090 h1         1 J1E       0.055700
     53 H09          3.3370    -2.0450    -1.4610 h1         1 J1E       0.106700
     54 H10          2.3030     0.1290     0.4180 h1         1 J1E       0.073700
     55 H13          2.9910    -4.7230     1.8640 h1         1 J1E       0.037700
     56 H14          2.0960    -3.5500     2.8300 h1         1 J1E       0.037700
     57 H01         -3.1500    -0.8930     0.9900 h1         1 J1E       0.115700
     58 H21         -6.0640     0.3190    -1.5790 h4         1 J1E       0.167000
     59 H12          4.6250    -1.8310     2.1020 ho         1 J1E       0.515000
     60 H15          0.8500    -5.4480     2.5500 ho         1 J1E       0.512000
     61 H16          1.3820     0.7810    -1.6230 ho         1 J1E       0.527000
     62 H26         -3.1350     0.6670    -1.3530 ho         1 J1E       0.441000
     63 H23        -11.5290     3.2460     0.1510 ha         1 J1E       0.132000
     64 H25         -9.3440     0.0750     2.0440 ha         1 J1E       0.139000
     65 H02          8.6430     1.2180    -1.7000 ha         1 J1E       0.152000
@<TRIPOS>BOND
     1     1    17 1   
     2     1    18 1   
     3     1    31 1   
     4     1    40 1   
     5     2    19 1   
     6     2    30 1   
     7     2    35 1   
     8     2    41 1   
     9     3    21 1   
    10     3    35 1   
    11     3    42 1   
    12     3    43 1   
    13     4    21 1   
    14     4    27 1   
    15     4    44 1   
    16     4    45 1   
    17     5     6 ar  
    18     5    36 1   
    19     5    38 ar  
    20     6     7 ar  
    21     6    46 1   
    22     7    37 ar  
    23     7    39 1   
    24     8    37 ar  
    25     8    38 ar  
    26     8    47 1   
    27     9    10 ar  
    28     9    14 ar  
    29     9    65 1   
    30    10    11 ar  
    31    10    15 1   
    32    11    12 ar  
    33    11    48 1   
    34    12    13 ar  
    35    12    49 1   
    36    13    14 ar  
    37    13    50 1   
    38    14    23 1   
    39    15    16 2   
    40    15    24 1   
    41    16    26 1   
    42    16    51 1   
    43    17    20 1   
    44    17    30 1   
    45    17    52 1   
    46    18    19 1   
    47    18    26 1   
    48    18    53 1   
    49    19    33 1   
    50    19    54 1   
    51    20    32 1   
    52    20    55 1   
    53    20    56 1   
    54    21    34 1   
    55    21    57 1   
    56    22    27 1   
    57    22    36 2   
    58    22    58 1   
    59    24    25 2   
    60    25    26 1   
    61    27    28 1   
    62    28    29 2   
    63    29    36 1   
    64    31    59 1   
    65    32    60 1   
    66    33    61 1   
    67    34    62 1   
    68    37    63 1   
    69    38    64 1   
@<TRIPOS>SUBSTRUCTURE
     1 J1E         1 TEMP              0 ****  ****    0 ROOT
