@<TRIPOS>MOLECULE
J1F
   78    82     1     0     0
SMALL
No Charge or Current Charge


@<TRIPOS>ATOM
      1 C01         -0.3530     4.0360     2.3470 c3         1 J1F      -0.222000
      2 C1           3.4960    -1.5790     2.3330 c5         1 J1F       0.136300
      3 C10          3.9500    -0.1460     2.7360 c3         1 J1F       0.096000
      4 C11          1.9080     1.2620     2.2790 c          1 J1F       0.583100
      5 C12          1.3690     2.4130     1.4060 c3         1 J1F       0.017000
      6 C13         -1.0850     1.9810     1.0100 c          1 J1F       0.601100
      7 C14         -2.5630     2.2890     1.3550 c3         1 J1F      -0.002000
      8 C15         -4.8700     1.3500     0.8460 c          1 J1F       0.514800
      9 C16         -6.7870    -3.5010    -2.7090 cc         1 J1F       0.759800
     10 C17         -4.7110    -2.5190    -2.1950 c          1 J1F       0.612200
     11 C18         -5.6050     0.2830     0.0370 ce         1 J1F       0.326300
     12 C19         -7.1790     0.1910     0.1510 c6         1 J1F       0.200900
     13 C2           4.2790    -2.7320     3.0380 c5         1 J1F       0.111300
     14 C20         -7.8610     1.5160    -0.3020 c3         1 J1F      -0.100600
     15 C21         -7.6200    -0.1500     1.6050 c3         1 J1F      -0.100600
     16 C22         -6.8850    -1.7000    -1.3980 cd         1 J1F       0.440600
     17 C23         -5.5030    -1.5450    -1.4110 cc         1 J1F      -0.196600
     18 C3           5.5900    -2.7240     2.2010 c5         1 J1F       0.073300
     19 C4           5.0290    -2.4480     0.7530 c5         1 J1F       0.318300
     20 C5           6.8260    -0.7230     0.1620 cc         1 J1F       0.426700
     21 C6           6.7630    -0.8600    -1.9850 ca         1 J1F      -0.093600
     22 C7           6.9490    -0.7300    -3.3770 ca         1 J1F       0.444900
     23 C8           5.3110    -2.2950    -3.7030 ca         1 J1F       0.169900
     24 C9           5.8140    -1.7460    -1.5400 ca         1 J1F       0.136500
     25 N02          3.2280     0.9350     2.0500 ns         1 J1F      -0.514900
     26 N1           5.8480    -1.6660    -0.1760 na         1 J1F      -0.281300
     27 N10         -5.4600    -3.4530    -2.8070 ns         1 J1F      -0.455400
     28 N11         -4.9340    -0.5630    -0.7430 nf         1 J1F      -0.470300
     29 N12         -7.7090    -0.8790    -0.7240 nu         1 J1F      -0.791200
     30 N2           7.4100    -0.2030    -0.9350 nd         1 J1F      -0.558100
     31 N3           7.8590     0.1210    -3.9220 nv         1 J1F      -1.068900
     32 N4           6.2190    -1.4480    -4.2460 nb         1 J1F      -0.315000
     33 N5           5.0680    -2.4850    -2.3840 nb         1 J1F      -0.208000
     34 N6          -0.0660     2.7570     1.6240 n          1 J1F      -0.300800
     35 N7          -3.4960     1.3550     0.6820 ns         1 J1F      -0.434900
     36 N8          -7.5660    -2.6990    -2.0500 nd         1 J1F      -0.781300
     37 O01          1.2410     0.6790     3.1260 o          1 J1F      -0.616100
     38 OP2         -1.3860     5.3720     0.1880 o          1 J1F      -0.920833
     39 OP3         -1.0100     6.6890     2.2130 o          1 J1F      -0.920833
     40 OP1          0.8900     5.9680     0.8550 o          1 J1F      -0.920833
     41 O1           3.7450    -1.7960     0.9210 os         1 J1F      -0.436000
     42 O2           3.6270    -4.0030     2.9250 oh         1 J1F      -0.699000
     43 O3           6.3000    -3.9740     2.3240 oh         1 J1F      -0.702000
     44 O4          -5.3980     2.1620     1.6000 o          1 J1F      -0.635100
     45 O6          -0.7950     1.0550     0.2530 o          1 J1F      -0.709100
     46 P01         -0.4720     5.6050     1.3430 p5         1 J1F       1.284500
     47 H23         -1.2850     3.9390     2.9150 h1         1 J1F       0.019200
     48 H05          0.4430     4.2040     3.0830 h1         1 J1F       0.019200
     49 H06          2.4180    -1.6650     2.5290 h1         1 J1F       0.121700
     50 H26          3.8090    -0.0230     3.8180 h1         1 J1F       0.045200
     51 H17          5.0200    -0.0200     2.5310 h1         1 J1F       0.045200
     52 H27          1.9960     3.2900     1.6040 h1         1 J1F       0.102700
     53 H18          1.5260     2.1330     0.3580 h1         1 J1F       0.102700
     54 H20         -2.6810     2.2110     2.4430 h1         1 J1F       0.109700
     55 H28         -2.7860     3.3170     1.0500 h1         1 J1F       0.109700
     56 H07          4.4750    -2.4970     4.0940 h1         1 J1F       0.054700
     57 H29         -7.5490     1.7920    -1.3160 hc         1 J1F       0.048700
     58 H31         -8.9540     1.4200    -0.3090 hc         1 J1F       0.048700
     59 H21         -7.6210     2.3560     0.3580 hc         1 J1F       0.048700
     60 H22         -7.3530     0.6390     2.3160 hc         1 J1F       0.048700
     61 H30         -8.7060    -0.2860     1.6720 hc         1 J1F       0.048700
     62 H04         -7.1490    -1.0790     1.9510 hc         1 J1F       0.048700
     63 H11          6.2330    -1.8990     2.5340 h1         1 J1F       0.053700
     64 H14          4.8610    -3.4120     0.2560 h2         1 J1F       0.113700
     65 H02          7.0590    -0.4570     1.1850 h5         1 J1F       0.076800
     66 H03          4.7150    -2.8830    -4.3980 h5         1 J1F       0.036100
     67 H08          3.7130     1.4570     1.3290 hn         1 J1F       0.326500
     68 H01         -4.9730    -4.1580    -3.3340 hn         1 J1F       0.311500
     69 H19         -8.6780    -1.1830    -0.6750 hn         1 J1F       0.484000
     70 H12          8.2550     0.8220    -3.3000 hn         1 J1F       0.500500
     71 H24          7.7450     0.3870    -4.8960 hn         1 J1F       0.500500
     72 H15         -3.1090     0.6570     0.0510 hn         1 J1F       0.352500
     73 H16         -6.9570    -4.7550    -4.2330 hn         1 J1F       0.501500
     74 H25         -8.3910    -4.3540    -3.4010 hn         1 J1F       0.501500
     75 H10          4.3650    -4.6300     2.7250 ho         1 J1F       0.506000
     76 H13          7.0020    -3.8560     3.0090 ho         1 J1F       0.505000
     77 N9          -7.3870    -4.4730    -3.3610 nv         1 J1F      -1.073200
     78 O5          -3.4930    -2.5150    -2.3000 o          1 J1F      -0.515000
@<TRIPOS>BOND
     1     1    34 1   
     2     1    46 1   
     3     1    47 1   
     4     1    48 1   
     5     2     3 1   
     6     2    13 1   
     7     2    41 1   
     8     2    49 1   
     9     3    25 1   
    10     3    50 1   
    11     3    51 1   
    12     4     5 1   
    13     4    25 1   
    14     4    37 2   
    15     5    34 1   
    16     5    52 1   
    17     5    53 1   
    18     6     7 1   
    19     6    34 1   
    20     6    45 2   
    21     7    35 1   
    22     7    54 1   
    23     7    55 1   
    24     8    11 1   
    25     8    35 1   
    26     8    44 2   
    27     9    27 1   
    28     9    36 2   
    29     9    77 1   
    30    10    17 1   
    31    10    27 1   
    32    10    78 2   
    33    11    12 1   
    34    11    28 2   
    35    12    14 1   
    36    12    15 1   
    37    12    29 1   
    38    13    18 1   
    39    13    42 1   
    40    13    56 1   
    41    14    57 1   
    42    14    58 1   
    43    14    59 1   
    44    15    60 1   
    45    15    61 1   
    46    15    62 1   
    47    16    17 2   
    48    16    29 1   
    49    16    36 1   
    50    17    28 1   
    51    18    19 1   
    52    18    43 1   
    53    18    63 1   
    54    19    26 1   
    55    19    41 1   
    56    19    64 1   
    57    20    26 1   
    58    20    30 2   
    59    20    65 1   
    60    21    22 ar  
    61    21    24 ar  
    62    21    30 1   
    63    22    31 1   
    64    22    32 ar  
    65    23    32 ar  
    66    23    33 ar  
    67    23    66 1   
    68    24    26 1   
    69    24    33 ar  
    70    25    67 1   
    71    27    68 1   
    72    29    69 1   
    73    31    70 1   
    74    31    71 1   
    75    35    72 1   
    76    38    46 1   
    77    39    46 1   
    78    40    46 1   
    79    42    75 1   
    80    43    76 1   
    81    73    77 1   
    82    74    77 1   
@<TRIPOS>SUBSTRUCTURE
     1 J1F         1 TEMP              0 ****  ****    0 ROOT
