@<TRIPOS>MOLECULE
J1F
   78    82     1     0     0
SMALL
bcc


@<TRIPOS>ATOM
      1 C01         -0.5020     3.0410     2.2880 c3         1 J1F      -0.064200
      2 C1           3.8200    -1.7520     1.6860 c5         1 J1F       0.113100
      3 C10          3.6140    -0.4530     2.4540 c3         1 J1F       0.096000
      4 C11          1.4800     0.5460     1.7830 c          1 J1F       0.650100
      5 C12          0.8450     1.5740     0.8580 c3         1 J1F       0.017000
      6 C13         -1.5390     1.3210     0.8340 c          1 J1F       0.668100
      7 C14         -2.8830     1.8020     1.3510 c3         1 J1F      -0.002000
      8 C15         -5.2250     1.3690     0.8740 c          1 J1F       0.581800
      9 C16         -8.0830    -3.2960    -2.2230 cc         1 J1F       0.759800
     10 C17         -5.9600    -2.9110    -1.0990 c          1 J1F       0.754700
     11 C18         -6.1760     0.4350     0.1870 ce         1 J1F       0.326300
     12 C19         -7.6570     0.7910     0.0890 c6         1 J1F       0.200900
     13 C2           4.7580    -2.7160     2.4020 c5         1 J1F       0.088100
     14 C20         -7.9150     2.2350    -0.3410 c3         1 J1F      -0.100600
     15 C21         -8.3480     0.4920     1.4240 c3         1 J1F      -0.100600
     16 C22         -7.7740    -1.2920    -1.2280 cd         1 J1F       0.440600
     17 C23         -6.4890    -1.6270    -0.7870 cc         1 J1F      -0.196600
     18 C3           6.1080    -2.3110     1.8040 c5         1 J1F       0.050100
     19 C4           5.7100    -2.0340     0.3560 c5         1 J1F       0.265800
     20 C5           6.8420     0.1830    -0.0260 cc         1 J1F       0.426700
     21 C6           7.9860    -0.2250    -1.7520 ca         1 J1F      -0.224200
     22 C7           8.8220    -0.2490    -2.8840 ca         1 J1F       0.773200
     23 C8           8.2140    -2.4500    -3.1640 ca         1 J1F       0.695900
     24 C9           7.3240    -1.4040    -1.4520 ca         1 J1F       0.464800
     25 N02          2.8230     0.5060     1.7250 ns         1 J1F      -0.581900
     26 N1           6.5910    -1.1280    -0.3320 na         1 J1F      -0.252000
     27 N10         -6.8600    -3.7100    -1.8140 ns         1 J1F      -0.522400
     28 N11         -5.6990    -0.6900    -0.1810 nf         1 J1F      -0.470300
     29 N12         -8.2180    -0.0620    -0.9620 nu         1 J1F      -0.736000
     30 N2           7.6680     0.7570    -0.8480 nd         1 J1F      -0.558100
     31 N3           9.5300     0.8100    -3.2820 nv         1 J1F      -0.958500
     32 N4           8.9110    -1.3930    -3.5710 nb         1 J1F      -0.841000
     33 N5           7.4020    -2.5490    -2.1260 nb         1 J1F      -0.734000
     34 N6          -0.4630     1.9530     1.3130 n          1 J1F      -0.367800
     35 N7          -3.9330     1.0880     0.6820 ns         1 J1F      -0.501900
     36 N8          -8.5610    -2.1020    -1.9510 nd         1 J1F      -0.781300
     37 O01          0.8170    -0.1820     2.5030 o          1 J1F      -0.616100
     38 OP2         -1.7680     4.8030     0.6650 o          1 J1F      -0.920833
     39 OP3         -0.4900     5.6800     2.7230 o          1 J1F      -0.920833
     40 OP1          0.8010     4.7890     0.6810 o          1 J1F      -0.920833
     41 O1           4.4250    -1.4810     0.4160 os         1 J1F      -0.389600
     42 O2           4.4220    -4.0290     2.0370 oh         1 J1F      -0.576800
     43 O3           7.0960    -3.2960     1.8420 oh         1 J1F      -0.579800
     44 O4          -5.6120     2.3000     1.5730 o          1 J1F      -0.635100
     45 O6          -1.4770     0.4120     0.0080 o          1 J1F      -0.709100
     46 P01         -0.4880     4.7450     1.5100 p5         1 J1F       1.126700
     47 H23         -1.3700     2.9240     2.9370 h1         1 J1F       0.019200
     48 H05          0.3660     2.9190     2.9430 h1         1 J1F       0.019200
     49 H06          2.8460    -2.2190     1.5120 h1         1 J1F       0.121700
     50 H26          3.1200    -0.6800     3.3990 h1         1 J1F       0.045200
     51 H17          4.5700     0.0120     2.7030 h1         1 J1F       0.045200
     52 H27          1.4520     2.4780     0.7860 h1         1 J1F       0.102700
     53 H18          0.7920     1.1430    -0.1430 h1         1 J1F       0.102700
     54 H20         -2.9390     1.6500     2.4360 h1         1 J1F       0.109700
     55 H28         -2.9520     2.8790     1.1750 h1         1 J1F       0.109700
     56 H07          4.7340    -2.5770     3.4910 h1         1 J1F       0.054700
     57 H29         -7.3300     2.4980    -1.2230 hc         1 J1F       0.048700
     58 H31         -8.9710     2.3540    -0.5900 hc         1 J1F       0.048700
     59 H21         -7.6830     2.9370     0.4530 hc         1 J1F       0.048700
     60 H22         -7.9420     1.1180     2.2170 hc         1 J1F       0.048700
     61 H30         -9.4180     0.6910     1.3450 hc         1 J1F       0.048700
     62 H04         -8.2160    -0.5530     1.7090 hc         1 J1F       0.048700
     63 H11          6.4450    -1.3810     2.2820 h1         1 J1F       0.053700
     64 H14          5.7230    -2.9640    -0.2220 h2         1 J1F       0.113700
     65 H02          6.3820     0.6700     0.8210 h5         1 J1F       0.076800
     66 H03          8.3300    -3.3450    -3.7660 h5         1 J1F       0.036100
     67 H08          3.2980     1.1320     1.0960 hn         1 J1F       0.326500
     68 H01         -6.5460    -4.6420    -2.0470 hn         1 J1F       0.311500
     69 H19         -9.1500     0.1630    -1.2800 hn         1 J1F       0.428800
     70 H12          9.4070     1.7050    -2.8420 hn         1 J1F       0.445300
     71 H24         10.0410     0.7750    -4.1470 hn         1 J1F       0.445300
     72 H15         -3.6870     0.2700     0.1440 hn         1 J1F       0.352500
     73 H16         -8.5150    -5.0780    -3.1530 hn         1 J1F       0.446300
     74 H25         -9.7410    -3.8690    -3.2260 hn         1 J1F       0.446300
     75 H10          5.1800    -4.5940     2.2230 ho         1 J1F       0.407000
     76 H13          7.5300    -3.2710     2.7010 ho         1 J1F       0.406000
     77 N9          -8.8230    -4.1490    -2.9260 nv         1 J1F      -0.962800
     78 O5          -4.8580    -3.3550    -0.8120 o          1 J1F      -0.590500
@<TRIPOS>BOND
     1     1    34 1   
     2     1    46 1   
     3     1    47 1   
     4     1    48 1   
     5     2     3 1   
     6     2    13 1   
     7     2    41 1   
     8     2    49 1   
     9     3    25 1   
    10     3    50 1   
    11     3    51 1   
    12     4     5 1   
    13     4    25 1   
    14     4    37 2   
    15     5    34 1   
    16     5    52 1   
    17     5    53 1   
    18     6     7 1   
    19     6    34 1   
    20     6    45 2   
    21     7    35 1   
    22     7    54 1   
    23     7    55 1   
    24     8    11 1   
    25     8    35 1   
    26     8    44 2   
    27     9    27 1   
    28     9    36 2   
    29     9    77 1   
    30    10    17 1   
    31    10    27 1   
    32    10    78 2   
    33    11    12 1   
    34    11    28 2   
    35    12    14 1   
    36    12    15 1   
    37    12    29 1   
    38    13    18 1   
    39    13    42 1   
    40    13    56 1   
    41    14    57 1   
    42    14    58 1   
    43    14    59 1   
    44    15    60 1   
    45    15    61 1   
    46    15    62 1   
    47    16    17 2   
    48    16    29 1   
    49    16    36 1   
    50    17    28 1   
    51    18    19 1   
    52    18    43 1   
    53    18    63 1   
    54    19    26 1   
    55    19    41 1   
    56    19    64 1   
    57    20    26 1   
    58    20    30 2   
    59    20    65 1   
    60    21    22 ar  
    61    21    24 ar  
    62    21    30 1   
    63    22    31 1   
    64    22    32 ar  
    65    23    32 ar  
    66    23    33 ar  
    67    23    66 1   
    68    24    26 1   
    69    24    33 ar  
    70    25    67 1   
    71    27    68 1   
    72    29    69 1   
    73    31    70 1   
    74    31    71 1   
    75    35    72 1   
    76    38    46 1   
    77    39    46 1   
    78    40    46 1   
    79    42    75 1   
    80    43    76 1   
    81    73    77 1   
    82    74    77 1   
@<TRIPOS>SUBSTRUCTURE
     1 J1F         1 TEMP              0 ****  ****    0 ROOT
