@<TRIPOS>MOLECULE
J1G
   47    49     1     0     0
SMALL
No Charge or Current Charge


@<TRIPOS>ATOM
      1 N           -3.0500     0.0980    -0.1770 ns         1 J1G      -0.499900
      2 CA          -2.2560    -1.1390    -0.0450 c3         1 J1G       0.091000
      3 C           -2.5380    -2.1420    -1.2080 c          1 J1G       0.607100
      4 O           -3.2280    -1.8700    -2.1870 o          1 J1G      -0.564100
      5 CAG          1.2930     0.0300    -0.9460 ca         1 J1G      -0.094500
      6 CAH          1.2820    -0.6750     1.3750 ca         1 J1G      -0.094500
      7 CAI         -0.0730    -0.2840    -1.0490 ca         1 J1G      -0.091500
      8 CAJ         -0.0850    -0.9880     1.2740 ca         1 J1G      -0.091500
      9 CAK          4.0090     1.2790    -0.3230 ca         1 J1G      -0.138500
     10 CAL          4.3280    -0.6010     1.1810 ca         1 J1G      -0.138500
     11 CAM         -6.7330     2.9610     0.8140 c5         1 J1G      -0.079900
     12 CAN         -7.3040     1.8290    -0.0700 c5         1 J1G      -0.079900
     13 CAO         -5.3690     2.3480     1.2210 c5         1 J1G      -0.069400
     14 CAP         -6.1160     1.6070    -1.0390 c5         1 J1G      -0.069400
     15 CAT         -4.3640     0.2210     0.2100 c          1 J1G       0.611100
     16 CAU          5.3740     1.5920    -0.2190 ca         1 J1G       0.162000
     17 CAV          5.6940    -0.2870     1.2820 ca         1 J1G       0.162000
     18 CAW          2.0000    -0.1600     0.2670 cp         1 J1G      -0.032000
     19 CAX          3.4560     0.1750     0.3760 cp         1 J1G       0.006000
     20 CAY         -0.7710    -0.7980     0.0610 ca         1 J1G      -0.107300
     21 CAZ          6.2230     0.8110     0.5830 ca         1 J1G       0.091000
     22 CBA         -4.8640     1.6620    -0.0970 c5         1 J1G      -0.146700
     23 FAE          6.4970    -1.0530     2.0560 f          1 J1G      -0.153000
     24 FAF          7.5400     1.1130     0.6820 f          1 J1G      -0.140000
     25 NAQ         -1.9270    -3.3850    -1.0610 ns         1 J1G      -0.378400
     26 OAB         -4.9990    -0.6960     0.7130 o          1 J1G      -0.600100
     27 OAC         -1.8620    -4.3220    -2.1650 oh         1 J1G      -0.424100
     28 H1          -2.6120     0.9140    -0.5860 hn         1 J1G       0.326500
     29 H2          -2.5640    -1.6460     0.8790 h1         1 J1G       0.067700
     30 H3           1.8100     0.4110    -1.8230 ha         1 J1G       0.122000
     31 H4           1.7830    -0.8190     2.3280 ha         1 J1G       0.122000
     32 H5          -0.5850    -0.1280    -1.9960 ha         1 J1G       0.126500
     33 H6          -0.6080    -1.3750     2.1470 ha         1 J1G       0.126500
     34 H7           3.3730     1.9090    -0.9390 ha         1 J1G       0.142500
     35 H8           3.9490    -1.4640     1.7220 ha         1 J1G       0.142500
     36 H9          -6.6100     3.8950     0.2540 hc         1 J1G       0.044200
     37 H10         -7.3680     3.1770     1.6810 hc         1 J1G       0.044200
     38 H11         -7.5340     0.9290     0.5120 hc         1 J1G       0.044200
     39 H12         -8.2200     2.1270    -0.5940 hc         1 J1G       0.044200
     40 H13         -4.6690     3.1080     1.5870 hc         1 J1G       0.055950
     41 H14         -5.5010     1.6260     2.0370 hc         1 J1G       0.055950
     42 H15         -6.1980     0.6650    -1.5930 hc         1 J1G       0.055950
     43 H16         -6.0730     2.4080    -1.7880 hc         1 J1G       0.055950
     44 H17         -4.0660     2.2530    -0.5630 hc         1 J1G       0.053700
     45 H18         -1.2310    -3.5090    -0.3260 hn         1 J1G       0.335500
     46 H19         -2.1690    -5.1720    -1.7690 ho         1 J1G       0.449000
     47 FAD          5.8660     2.6550    -0.8960 f          1 J1G      -0.153000
@<TRIPOS>BOND
     1     1     2 1   
     2     1    15 1   
     3     1    28 1   
     4     2     3 1   
     5     2    20 1   
     6     2    29 1   
     7     3     4 2   
     8     3    25 1   
     9     5     7 ar  
    10     5    18 ar  
    11     5    30 1   
    12     6     8 ar  
    13     6    18 ar  
    14     6    31 1   
    15     7    20 ar  
    16     7    32 1   
    17     8    20 ar  
    18     8    33 1   
    19     9    16 ar  
    20     9    19 ar  
    21     9    34 1   
    22    10    17 ar  
    23    10    19 ar  
    24    10    35 1   
    25    11    12 1   
    26    11    13 1   
    27    11    36 1   
    28    11    37 1   
    29    12    14 1   
    30    12    38 1   
    31    12    39 1   
    32    13    22 1   
    33    13    40 1   
    34    13    41 1   
    35    14    22 1   
    36    14    42 1   
    37    14    43 1   
    38    15    22 1   
    39    15    26 2   
    40    16    21 ar  
    41    16    47 1   
    42    17    21 ar  
    43    17    23 1   
    44    18    19 1   
    45    21    24 1   
    46    22    44 1   
    47    25    27 1   
    48    25    45 1   
    49    27    46 1   
@<TRIPOS>SUBSTRUCTURE
     1 J1G         1 TEMP              0 ****  ****    0 ROOT
