@<TRIPOS>MOLECULE
J1G
   47    49     1     0     0
SMALL
abcg2


@<TRIPOS>ATOM
      1 N           -2.9440     0.1050     0.6680 ns         1 J1G      -0.499900
      2 CA          -2.1210    -1.0730     0.6410 c3         1 J1G       0.091000
      3 C           -2.5050    -1.9640    -0.5500 c          1 J1G       0.607100
      4 O           -2.8170    -1.5160    -1.6340 o          1 J1G      -0.564100
      5 CAG          1.1140     0.4130    -0.6860 ca         1 J1G      -0.094500
      6 CAH          1.6170    -0.8870     1.2610 ca         1 J1G      -0.094500
      7 CAI         -0.2280     0.1010    -0.5520 ca         1 J1G      -0.091500
      8 CAJ          0.2720    -1.1940     1.3990 ca         1 J1G      -0.091500
      9 CAK          3.8770     1.5180    -0.3730 ca         1 J1G      -0.138500
     10 CAL          4.4650    -0.7000     0.3540 ca         1 J1G      -0.138500
     11 CAM         -7.0400     2.5610     0.3310 c5         1 J1G      -0.079900
     12 CAN         -6.4840     2.4460    -1.0920 c5         1 J1G      -0.079900
     13 CAO         -6.4410     1.3570     1.0500 c5         1 J1G      -0.069400
     14 CAP         -5.1080     1.7600    -0.9480 c5         1 J1G      -0.069400
     15 CAT         -4.2880     0.0250     0.6860 c          1 J1G       0.611100
     16 CAU          5.2160     1.8110    -0.5150 ca         1 J1G       0.162000
     17 CAV          5.7970    -0.3800     0.2050 ca         1 J1G       0.162000
     18 CAW          2.0580    -0.0780     0.2160 cp         1 J1G      -0.032000
     19 CAX          3.4890     0.2520     0.0650 cp         1 J1G       0.006000
     20 CAY         -0.6640    -0.7060     0.4960 ca         1 J1G      -0.107300
     21 CAZ          6.1910     0.8730    -0.2300 ca         1 J1G       0.091000
     22 CBA         -5.0030     1.3460     0.5440 c5         1 J1G      -0.146700
     23 FAE          6.7400    -1.2840     0.4700 f          1 J1G      -0.153000
     24 FAF          7.4810     1.1670    -0.3720 f          1 J1G      -0.140000
     25 NAQ         -2.4080    -3.2720    -0.2640 ns         1 J1G      -0.378400
     26 OAB         -4.8590    -1.0530     0.7660 o          1 J1G      -0.600100
     27 OAC         -2.4500    -4.1930    -1.2650 oh         1 J1G      -0.424100
     28 H1          -2.5010     1.0080     0.6190 hn         1 J1G       0.326500
     29 H2          -2.2430    -1.6390     1.5710 h1         1 J1G       0.067700
     30 H3           1.4300     1.0250    -1.5220 ha         1 J1G       0.122000
     31 H4           2.3200    -1.2640     1.9930 ha         1 J1G       0.122000
     32 H5          -0.9310     0.4830    -1.2820 ha         1 J1G       0.126500
     33 H6          -0.0480    -1.8100     2.2300 ha         1 J1G       0.126500
     34 H7           3.1460     2.2870    -0.5850 ha         1 J1G       0.142500
     35 H8           4.1980    -1.6990     0.6730 ha         1 J1G       0.142500
     36 H9          -6.6940     3.4840     0.8030 hc         1 J1G       0.044200
     37 H10         -8.1310     2.5740     0.3600 hc         1 J1G       0.044200
     38 H11         -7.1460     1.8280    -1.6990 hc         1 J1G       0.044200
     39 H12         -6.4110     3.4140    -1.5880 hc         1 J1G       0.044200
     40 H13         -6.5070     1.4230     2.1370 hc         1 J1G       0.055950
     41 H14         -6.9530     0.4420     0.7410 hc         1 J1G       0.055950
     42 H15         -5.0420     0.8860    -1.6000 hc         1 J1G       0.055950
     43 H16         -4.2850     2.4190    -1.2240 hc         1 J1G       0.055950
     44 H17         -4.4340     2.1140     1.0790 hc         1 J1G       0.053700
     45 H18         -2.0400    -3.6120     0.6130 hn         1 J1G       0.335500
     46 H19         -3.3560    -4.5300    -1.2820 ho         1 J1G       0.449000
     47 FAD          5.6000     3.0210    -0.9220 f          1 J1G      -0.153000
@<TRIPOS>BOND
     1     1     2 1   
     2     1    15 1   
     3     1    28 1   
     4     2     3 1   
     5     2    20 1   
     6     2    29 1   
     7     3     4 2   
     8     3    25 1   
     9     5     7 ar  
    10     5    18 ar  
    11     5    30 1   
    12     6     8 ar  
    13     6    18 ar  
    14     6    31 1   
    15     7    20 ar  
    16     7    32 1   
    17     8    20 ar  
    18     8    33 1   
    19     9    16 ar  
    20     9    19 ar  
    21     9    34 1   
    22    10    17 ar  
    23    10    19 ar  
    24    10    35 1   
    25    11    12 1   
    26    11    13 1   
    27    11    36 1   
    28    11    37 1   
    29    12    14 1   
    30    12    38 1   
    31    12    39 1   
    32    13    22 1   
    33    13    40 1   
    34    13    41 1   
    35    14    22 1   
    36    14    42 1   
    37    14    43 1   
    38    15    22 1   
    39    15    26 2   
    40    16    21 ar  
    41    16    47 1   
    42    17    21 ar  
    43    17    23 1   
    44    18    19 1   
    45    21    24 1   
    46    22    44 1   
    47    25    27 1   
    48    25    45 1   
    49    27    46 1   
@<TRIPOS>SUBSTRUCTURE
     1 J1G         1 TEMP              0 ****  ****    0 ROOT
