@<TRIPOS>MOLECULE
J1H
  107   112     1     0     0
SMALL
abcg2


@<TRIPOS>ATOM
      1 C1          -9.2790    -0.6320    -1.0860 ca         1 J1H      -0.091000
      2 C2          -8.8540    -1.9500    -1.1360 ca         1 J1H      -0.106500
      3 C3          -9.0260    -2.7550    -0.0220 ca         1 J1H       0.114000
      4 CL4         -8.4760    -4.4010    -0.0630 cl         1 J1H      -0.208000
      5 C5          -9.6340    -2.2680     1.1240 ca         1 J1H      -0.106500
      6 C6         -10.0500    -0.9460     1.1570 ca         1 J1H      -0.091000
      7 C7          -9.8590    -0.1040     0.0650 cp         1 J1H      -0.003000
      8 C8         -10.2900     1.3140     0.0960 cp         1 J1H      -0.020000
      9 C9         -11.2570     1.7390    -0.8130 ca         1 J1H      -0.103000
     10 C10        -11.7040     3.0530    -0.8290 ca         1 J1H      -0.107000
     11 C11        -11.1760     3.9660     0.0700 ca         1 J1H      -0.106000
     12 C12        -10.2010     3.5540     0.9690 ca         1 J1H      -0.111000
     13 C13         -9.7480     2.2400     1.0000 ca         1 J1H      -0.075300
     14 C14         -8.6700     1.8490     1.9840 c3         1 J1H       0.233100
     15 N15         -7.5910     1.1470     1.3370 n3         1 J1H      -0.745600
     16 C18         -6.8080     0.3070     2.2050 c6         1 J1H       0.172300
     17 C19         -5.8890    -0.5880     1.3930 c6         1 J1H       0.209300
     18 C16         -6.7460     1.9820     0.5220 c6         1 J1H       0.172300
     19 C17         -5.8250     1.1230    -0.3220 c6         1 J1H       0.209300
     20 N20         -5.0560     0.2010     0.5030 nh         1 J1H      -0.802400
     21 C21         -3.8630    -0.3020     0.0560 ca         1 J1H       0.366000
     22 C24         -2.9980     0.4650    -0.7560 ca         1 J1H      -0.201500
     23 C25         -1.7770    -0.0230    -1.1610 ca         1 J1H      -0.015000
     24 C22         -3.4230    -1.5950     0.4010 ca         1 J1H      -0.201500
     25 C23         -2.1930    -2.0690    -0.0060 ca         1 J1H      -0.015000
     26 C26         -1.3360    -1.2960    -0.7890 ca         1 J1H      -0.223600
     27 C27         -0.0170    -1.7470    -1.2600 c          1 J1H       0.661700
     28 O28          0.6380    -1.1520    -2.0920 o          1 J1H      -0.578100
     29 N29          0.4720    -2.9050    -0.6900 ns         1 J1H      -0.586300
     30 S30          1.9430    -3.5820    -1.1150 sy         1 J1H       1.199300
     31 O31          2.0640    -4.7130    -0.2130 o          1 J1H      -0.525500
     32 O32          1.9790    -3.7840    -2.5470 o          1 J1H      -0.525500
     33 C33          3.1420    -2.3750    -0.6880 ca         1 J1H      -0.371500
     34 C34          3.5400    -2.2640     0.6210 ca         1 J1H       0.104000
     35 C35          4.4860    -1.3110     0.9880 ca         1 J1H      -0.308200
     36 N36          4.8390    -1.2780     2.3820 no         1 J1H       0.710200
     37 O38          5.6610    -0.4630     2.7630 o          1 J1H      -0.419000
     38 O37          4.3120    -2.0630     3.1350 o          1 J1H      -0.419000
     39 C39          3.7000    -1.5410    -1.6630 ca         1 J1H       0.104000
     40 C40          4.6320    -0.6070    -1.3120 ca         1 J1H      -0.241000
     41 C41          5.0670    -0.4300     0.0260 ca         1 J1H       0.467000
     42 N42          5.9750     0.5030     0.3390 nu         1 J1H      -0.957200
     43 C43          6.5810     1.4810    -0.5410 c3         1 J1H       0.254500
     44 C44          8.0780     1.5840    -0.2320 c3         1 J1H      -0.112400
     45 C45          8.7640     0.2600    -0.5230 c3         1 J1H       0.079600
     46 N46         10.2410     0.2180    -0.2380 n4         1 J1H      -0.468000
     47 C47         10.9510     1.2280    -1.0710 c3         1 J1H       0.081900
     48 C49         10.4880     0.4750     1.2080 c3         1 J1H       0.081900
     49 C48         10.6970    -1.1710    -0.6070 c3         1 J1H      -0.069400
     50 C58         12.1900    -1.5540    -0.4350 c          1 J1H       0.726000
     51 O60         12.3990    -2.7240    -0.7840 o          1 J1H      -0.662500
     52 O59         13.0030    -0.7260     0.0050 o          1 J1H      -0.662500
     53 C50          5.9370     2.8580    -0.3710 c3         1 J1H       0.006600
     54 S51          4.1790     2.7630    -0.7940 ss         1 J1H      -0.147000
     55 C52          3.5690     4.3650    -0.3890 ca         1 J1H      -0.095000
     56 C53          4.3690     5.4380    -0.0030 ca         1 J1H      -0.107000
     57 C54          3.7870     6.6650     0.2910 ca         1 J1H      -0.094500
     58 C55          2.4150     6.8400     0.1980 ca         1 J1H      -0.108000
     59 C56          1.6180     5.7700    -0.1930 ca         1 J1H      -0.094500
     60 C57          2.1860     4.5410    -0.4820 ca         1 J1H      -0.107000
     61 H1          -9.1280     0.0030    -1.9500 ha         1 J1H       0.117000
     62 H2          -8.3880    -2.3400    -2.0310 ha         1 J1H       0.128000
     63 H3          -9.7850    -2.9080     1.9830 ha         1 J1H       0.128000
     64 H4         -10.5330    -0.5750     2.0520 ha         1 J1H       0.117000
     65 H5         -11.6770     1.0240    -1.5100 ha         1 J1H       0.118000
     66 H6         -12.4600     3.3570    -1.5420 ha         1 J1H       0.117000
     67 H7         -11.5110     4.9950     0.0680 ha         1 J1H       0.116000
     68 H8          -9.7700     4.2730     1.6560 ha         1 J1H       0.111000
     69 H9          -8.3320     2.7500     2.5200 h1         1 J1H       0.039200
     70 H10         -9.0930     1.1910     2.7470 h1         1 J1H       0.039200
     71 H12         -6.2050     0.8860     2.9260 h1         1 J1H       0.041700
     72 H13         -7.4780    -0.3360     2.7800 h1         1 J1H       0.041700
     73 H14         -5.2660    -1.1370     2.0960 h1         1 J1H       0.051950
     74 H15         -6.4910    -1.3160     0.8310 h1         1 J1H       0.051950
     75 H16         -7.3620     2.5780    -0.1540 h1         1 J1H       0.041700
     76 H17         -6.1470     2.6860     1.1270 h1         1 J1H       0.041700
     77 H18         -6.4300     0.5570    -1.0430 h1         1 J1H       0.051950
     78 H19         -5.1650     1.7740    -0.8860 h1         1 J1H       0.051950
     79 H20         -3.2640     1.4680    -1.0550 ha         1 J1H       0.119000
     80 H21         -1.1440     0.6080    -1.7700 ha         1 J1H       0.119500
     81 H22         -4.0460    -2.2610     0.9790 ha         1 J1H       0.119000
     82 H23         -1.9420    -3.0810     0.2830 ha         1 J1H       0.119500
     83 H24          0.0290    -3.3310     0.1130 hn         1 J1H       0.348500
     84 H25          3.1240    -2.9110     1.3790 ha         1 J1H       0.165000
     85 H26          3.4060    -1.6250    -2.6990 ha         1 J1H       0.158000
     86 H27          5.0370     0.0150    -2.0950 ha         1 J1H       0.128000
     87 H28          6.1840     0.6060     1.3220 hn         1 J1H       0.532000
     88 H29          6.4740     1.1630    -1.5770 h1         1 J1H       0.082700
     89 H30          8.4890     2.3830    -0.8490 hc         1 J1H       0.068700
     90 H31          8.2020     1.8850     0.8100 hc         1 J1H       0.068700
     91 H32          8.3180    -0.5400     0.0680 hx         1 J1H       0.089200
     92 H33          8.6460     0.0010    -1.5750 hx         1 J1H       0.089200
     93 H34         10.6460     2.2270    -0.7750 hx         1 J1H       0.090367
     94 H35         12.0180     1.1160    -0.9170 hx         1 J1H       0.090367
     95 H36         10.7020     1.0610    -2.1160 hx         1 J1H       0.090367
     96 H37          9.8920    -0.2190     1.7960 hx         1 J1H       0.090367
     97 H38         11.5420     0.3300     1.4090 hx         1 J1H       0.090367
     98 H39         10.2090     1.4950     1.4500 hx         1 J1H       0.090367
     99 H40         10.0940    -1.8570    -0.0100 hx         1 J1H       0.070700
    100 H41         10.4170    -1.3150    -1.6510 hx         1 J1H       0.070700
    101 H43          6.0520     3.1940     0.6610 h1         1 J1H       0.076200
    102 H44          6.4440     3.5670    -1.0260 h1         1 J1H       0.076200
    103 H45          5.4420     5.3380     0.0740 ha         1 J1H       0.116500
    104 H46          4.4200     7.4900     0.5930 ha         1 J1H       0.116500
    105 H47          1.9690     7.7990     0.4290 ha         1 J1H       0.119000
    106 H48          0.5450     5.8890    -0.2690 ha         1 J1H       0.116500
    107 H49          1.5520     3.7130    -0.7770 ha         1 J1H       0.116500
@<TRIPOS>BOND
     1     1     2 ar  
     2     1     7 ar  
     3     1    61 1   
     4     2     3 ar  
     5     2    62 1   
     6     3     4 1   
     7     3     5 ar  
     8     5     6 ar  
     9     5    63 1   
    10     6     7 ar  
    11     6    64 1   
    12     7     8 1   
    13     8     9 ar  
    14     8    13 ar  
    15     9    10 ar  
    16     9    65 1   
    17    10    11 ar  
    18    10    66 1   
    19    11    12 ar  
    20    11    67 1   
    21    12    13 ar  
    22    12    68 1   
    23    13    14 1   
    24    14    15 1   
    25    14    69 1   
    26    14    70 1   
    27    15    16 1   
    28    15    18 1   
    29    16    17 1   
    30    16    71 1   
    31    16    72 1   
    32    17    20 1   
    33    17    73 1   
    34    17    74 1   
    35    18    19 1   
    36    18    75 1   
    37    18    76 1   
    38    19    20 1   
    39    19    77 1   
    40    19    78 1   
    41    20    21 1   
    42    21    22 ar  
    43    21    24 ar  
    44    22    23 ar  
    45    22    79 1   
    46    23    26 ar  
    47    23    80 1   
    48    24    25 ar  
    49    24    81 1   
    50    25    26 ar  
    51    25    82 1   
    52    26    27 1   
    53    27    28 2   
    54    27    29 1   
    55    29    30 1   
    56    29    83 1   
    57    30    31 2   
    58    30    32 2   
    59    30    33 1   
    60    33    34 ar  
    61    33    39 ar  
    62    34    35 ar  
    63    34    84 1   
    64    35    36 1   
    65    35    41 ar  
    66    36    37 1   
    67    36    38 1   
    68    39    40 ar  
    69    39    85 1   
    70    40    41 ar  
    71    40    86 1   
    72    41    42 1   
    73    42    43 1   
    74    42    87 1   
    75    43    44 1   
    76    43    53 1   
    77    43    88 1   
    78    44    45 1   
    79    44    89 1   
    80    44    90 1   
    81    45    46 1   
    82    45    91 1   
    83    45    92 1   
    84    46    47 1   
    85    46    48 1   
    86    46    49 1   
    87    47    93 1   
    88    47    94 1   
    89    47    95 1   
    90    48    96 1   
    91    48    97 1   
    92    48    98 1   
    93    49    50 1   
    94    49    99 1   
    95    49   100 1   
    96    50    51 1   
    97    50    52 1   
    98    53    54 1   
    99    53   101 1   
   100    53   102 1   
   101    54    55 1   
   102    55    56 ar  
   103    55    60 ar  
   104    56    57 ar  
   105    56   103 1   
   106    57    58 ar  
   107    57   104 1   
   108    58    59 ar  
   109    58   105 1   
   110    59    60 ar  
   111    59   106 1   
   112    60   107 1   
@<TRIPOS>SUBSTRUCTURE
     1 J1H         1 TEMP              0 ****  ****    0 ROOT
