@<TRIPOS>MOLECULE
J1H
  107   112     1     0     0
SMALL
No Charge or Current Charge


@<TRIPOS>ATOM
      1 C1          -9.4140    -0.1960     0.1770 ca         1 J1H      -0.091000
      2 C2          -9.2820    -1.4410     0.8160 ca         1 J1H      -0.106500
      3 C3          -9.1850    -1.5040     2.2150 ca         1 J1H       0.114000
      4 Cl4         -9.0160    -3.0610     3.0140 cl         1 J1H      -0.208000
      5 C5          -9.2270    -0.3260     2.9770 ca         1 J1H      -0.106500
      6 C6          -9.3580     0.9190     2.3370 ca         1 J1H      -0.091000
      7 C7          -9.4430     1.0060     0.9260 cp         1 J1H      -0.003000
      8 C8          -9.5700     2.3230     0.2340 cp         1 J1H      -0.020000
      9 C9         -10.7140     2.5740    -0.5620 ca         1 J1H      -0.103000
     10 C10        -10.8760     3.7940    -1.2370 ca         1 J1H      -0.107000
     11 C11         -9.8900     4.7840    -1.1340 ca         1 J1H      -0.106000
     12 C12         -8.7400     4.5520    -0.3610 ca         1 J1H      -0.111000
     13 C13         -8.5650     3.3310     0.3240 ca         1 J1H      -0.075300
     14 C14         -7.2700     3.1230     1.1180 c3         1 J1H       0.233100
     15 N15         -6.4650     1.9700     0.6500 n3         1 J1H      -0.745600
     16 C18         -5.3060     1.6690     1.5420 c6         1 J1H       0.172300
     17 C19         -4.5120     0.3990     1.0910 c6         1 J1H       0.209300
     18 C16         -5.9990     2.1000    -0.7660 c6         1 J1H       0.172300
     19 C17         -5.2140     0.8420    -1.2610 c6         1 J1H       0.209300
     20 N20         -4.0880     0.4660    -0.3450 nh         1 J1H      -0.802400
     21 C21         -3.0010    -0.2950    -0.8300 ca         1 J1H       0.366000
     22 C24         -2.2880     0.1440    -1.9560 ca         1 J1H      -0.201500
     23 C25         -1.1880    -0.5820    -2.4410 ca         1 J1H      -0.015000
     24 C22         -2.5960    -1.4820    -0.1960 ca         1 J1H      -0.201500
     25 C23         -1.4970    -2.2170    -0.6730 ca         1 J1H      -0.015000
     26 C26         -0.7730    -1.7720    -1.8040 ca         1 J1H      -0.223600
     27 C27          0.4440    -2.5020    -2.3270 c          1 J1H       0.661700
     28 O28          1.1210    -2.0470    -3.2360 o          1 J1H      -0.578100
     29 N29          0.7540    -3.6740    -1.7150 ns         1 J1H      -0.586300
     30 S30          2.1700    -4.5450    -1.8620 sy         1 J1H       1.199300
     31 O31          2.0360    -5.6540    -0.9130 o          1 J1H      -0.525500
     32 O32          2.3890    -4.7760    -3.2930 o          1 J1H      -0.525500
     33 C33          3.4200    -3.4170    -1.2540 ca         1 J1H      -0.371500
     34 C34          3.6430    -3.3090     0.1300 ca         1 J1H       0.104000
     35 C35          4.5660    -2.3630     0.6250 ca         1 J1H      -0.308200
     36 N36          4.7440    -2.2450     2.0930 no         1 J1H       0.710200
     37 O38          5.8540    -1.9140     2.5300 o          1 J1H      -0.419000
     38 O37          3.8000    -2.5810     2.8160 o          1 J1H      -0.419000
     39 C39          4.1220    -2.5970    -2.1520 ca         1 J1H       0.104000
     40 C40          5.0330    -1.6570    -1.6530 ca         1 J1H      -0.241000
     41 C41          5.2440    -1.5250    -0.2770 ca         1 J1H       0.467000
     42 N42          6.0890    -0.5140     0.1590 nu         1 J1H      -0.957200
     43 C43          5.9130     0.9140    -0.1550 c3         1 J1H       0.254500
     44 C44          7.2090     1.6570     0.2230 c3         1 J1H      -0.112400
     45 C45          8.4300     1.1660    -0.5890 c3         1 J1H       0.079600
     46 N46          9.7930     1.8130    -0.3010 n4         1 J1H      -0.468000
     47 C47          9.7350     3.3230    -0.5770 c3         1 J1H       0.081900
     48 C49         10.1980     1.5690     1.1600 c3         1 J1H       0.081900
     49 C48         10.8410     1.1620    -1.2380 c3         1 J1H      -0.069400
     50 C58         12.3140     1.6270    -1.1610 c          1 J1H       0.726000
     51 O60         13.0600     1.0430    -0.3890 o          1 J1H      -0.662500
     52 O59         12.6610     2.5500    -1.8850 o          1 J1H      -0.662500
     53 C50          4.6780     1.4980     0.5810 c3         1 J1H       0.006600
     54 S51          3.0810     0.8910    -0.1420 ss         1 J1H      -0.147000
     55 C52          1.7730     1.6400     0.8340 ca         1 J1H      -0.095000
     56 C53          2.0270     2.5090     1.9170 ca         1 J1H      -0.107000
     57 C54          0.9570     3.0660     2.6400 ca         1 J1H      -0.094500
     58 C55         -0.3700     2.7630     2.2870 ca         1 J1H      -0.108000
     59 C56         -0.6260     1.9000     1.2100 ca         1 J1H      -0.094500
     60 C57          0.4420     1.3400     0.4900 ca         1 J1H      -0.107000
     61 H1          -9.4790    -0.1530    -0.9070 ha         1 J1H       0.117000
     62 H2          -9.2510    -2.3550     0.2270 ha         1 J1H       0.128000
     63 H3          -9.1580    -0.3770     4.0610 ha         1 J1H       0.128000
     64 H4          -9.3970     1.8260     2.9350 ha         1 J1H       0.117000
     65 H5         -11.4850     1.8120    -0.6460 ha         1 J1H       0.118000
     66 H6         -11.7650     3.9700    -1.8390 ha         1 J1H       0.117000
     67 H7         -10.0110     5.7300    -1.6570 ha         1 J1H       0.116000
     68 H8          -7.9780     5.3260    -0.3010 ha         1 J1H       0.111000
     69 H9          -6.6640     4.0380     1.0680 h1         1 J1H       0.039200
     70 H10         -7.5350     2.9880     2.1740 h1         1 J1H       0.039200
     71 H12         -4.6130     2.5230     1.5610 h1         1 J1H       0.041700
     72 H13         -5.6510     1.5130     2.5750 h1         1 J1H       0.041700
     73 H14         -3.6330     0.2950     1.7450 h1         1 J1H       0.051950
     74 H15         -5.1460    -0.4850     1.2510 h1         1 J1H       0.051950
     75 H16         -6.8530     2.2570    -1.4400 h1         1 J1H       0.041700
     76 H17         -5.3460     2.9790    -0.8670 h1         1 J1H       0.041700
     77 H18         -5.9190     0.0010    -1.3390 h1         1 J1H       0.051950
     78 H19         -4.8450     1.0450    -2.2760 h1         1 J1H       0.051950
     79 H20         -2.5730     1.0680    -2.4490 ha         1 J1H       0.119000
     80 H21         -0.6510    -0.2040    -3.3090 ha         1 J1H       0.119500
     81 H22         -3.1330    -1.8500     0.6720 ha         1 J1H       0.119000
     82 H23         -1.2200    -3.1230    -0.1400 ha         1 J1H       0.119500
     83 H24          0.1920    -4.0120    -0.9560 hn         1 J1H       0.348500
     84 H25          3.0890    -3.9480     0.8200 ha         1 J1H       0.165000
     85 H26          3.9510    -2.6610    -3.2260 ha         1 J1H       0.158000
     86 H27          5.5640    -1.0120    -2.3450 ha         1 J1H       0.128000
     87 H28          6.4340    -0.7010     1.1030 hn         1 J1H       0.532000
     88 H29          5.7600     1.0510    -1.2360 h1         1 J1H       0.082700
     89 H30          7.0680     2.7280     0.0410 hc         1 J1H       0.068700
     90 H31          7.3990     1.5350     1.2960 hc         1 J1H       0.068700
     91 H32          8.5410     0.0920    -0.4240 hx         1 J1H       0.089200
     92 H33          8.2190     1.3130    -1.6500 hx         1 J1H       0.089200
     93 H34          9.0070     3.7860     0.0920 hx         1 J1H       0.090367
     94 H35         10.7210     3.7580    -0.4020 hx         1 J1H       0.090367
     95 H36          9.4410     3.4870    -1.6150 hx         1 J1H       0.090367
     96 H37         10.2290     0.4940     1.3480 hx         1 J1H       0.090367
     97 H38         11.1850     2.0010     1.3370 hx         1 J1H       0.090367
     98 H39          9.4690     2.0400     1.8220 hx         1 J1H       0.090367
     99 H40         10.8420     0.0890    -1.0410 hx         1 J1H       0.070700
    100 H41         10.5160     1.3230    -2.2660 hx         1 J1H       0.070700
    101 H43          4.7230     1.2320     1.6440 h1         1 J1H       0.076200
    102 H44          4.6920     2.5910     0.4940 h1         1 J1H       0.076200
    103 H45          3.0400     2.7630     2.2120 ha         1 J1H       0.116500
    104 H46          1.1560     3.7360     3.4740 ha         1 J1H       0.116500
    105 H47         -1.1960     3.1980     2.8460 ha         1 J1H       0.119000
    106 H48         -1.6510     1.6660     0.9310 ha         1 J1H       0.116500
    107 H49          0.2370     0.6710    -0.3420 ha         1 J1H       0.116500
@<TRIPOS>BOND
     1     1     2 ar  
     2     1     7 ar  
     3     1    61 1   
     4     2     3 ar  
     5     2    62 1   
     6     3     4 1   
     7     3     5 ar  
     8     5     6 ar  
     9     5    63 1   
    10     6     7 ar  
    11     6    64 1   
    12     7     8 1   
    13     8     9 ar  
    14     8    13 ar  
    15     9    10 ar  
    16     9    65 1   
    17    10    11 ar  
    18    10    66 1   
    19    11    12 ar  
    20    11    67 1   
    21    12    13 ar  
    22    12    68 1   
    23    13    14 1   
    24    14    15 1   
    25    14    69 1   
    26    14    70 1   
    27    15    16 1   
    28    15    18 1   
    29    16    17 1   
    30    16    71 1   
    31    16    72 1   
    32    17    20 1   
    33    17    73 1   
    34    17    74 1   
    35    18    19 1   
    36    18    75 1   
    37    18    76 1   
    38    19    20 1   
    39    19    77 1   
    40    19    78 1   
    41    20    21 1   
    42    21    22 ar  
    43    21    24 ar  
    44    22    23 ar  
    45    22    79 1   
    46    23    26 ar  
    47    23    80 1   
    48    24    25 ar  
    49    24    81 1   
    50    25    26 ar  
    51    25    82 1   
    52    26    27 1   
    53    27    28 2   
    54    27    29 1   
    55    29    30 1   
    56    29    83 1   
    57    30    31 2   
    58    30    32 2   
    59    30    33 1   
    60    33    34 ar  
    61    33    39 ar  
    62    34    35 ar  
    63    34    84 1   
    64    35    36 1   
    65    35    41 ar  
    66    36    37 1   
    67    36    38 1   
    68    39    40 ar  
    69    39    85 1   
    70    40    41 ar  
    71    40    86 1   
    72    41    42 1   
    73    42    43 1   
    74    42    87 1   
    75    43    44 1   
    76    43    53 1   
    77    43    88 1   
    78    44    45 1   
    79    44    89 1   
    80    44    90 1   
    81    45    46 1   
    82    45    91 1   
    83    45    92 1   
    84    46    47 1   
    85    46    48 1   
    86    46    49 1   
    87    47    93 1   
    88    47    94 1   
    89    47    95 1   
    90    48    96 1   
    91    48    97 1   
    92    48    98 1   
    93    49    50 1   
    94    49    99 1   
    95    49   100 1   
    96    50    51 1   
    97    50    52 1   
    98    53    54 1   
    99    53   101 1   
   100    53   102 1   
   101    54    55 1   
   102    55    56 ar  
   103    55    60 ar  
   104    56    57 ar  
   105    56   103 1   
   106    57    58 ar  
   107    57   104 1   
   108    58    59 ar  
   109    58   105 1   
   110    59    60 ar  
   111    59   106 1   
   112    60   107 1   
@<TRIPOS>SUBSTRUCTURE
     1 J1H         1 TEMP              0 ****  ****    0 ROOT
