@<TRIPOS>MOLECULE
J1I
   79    83     1     0     0
SMALL
abcg2


@<TRIPOS>ATOM
      1 N            9.8220     4.7660     1.1030 nv         1 J1I      -1.070200
      2 C            8.2930    -0.6720    -1.9880 c3         1 J1I      -0.100600
      3 O            5.1220    -1.5330    -2.1470 o          1 J1I      -0.623100
      4 P01          1.1700    -4.7440     1.0260 p5         1 J1I       1.300500
      5 C01         -8.8870     3.5410    -0.2020 ca         1 J1I       0.160900
      6 N01         -8.1550     4.5160    -0.7360 nb         1 J1I      -0.318000
      7 O01         -6.0020    -0.7530     1.5730 os         1 J1I      -0.429000
      8 OP3          1.4760    -5.5610     2.2920 o          1 J1I      -0.929833
      9 N02         -8.5080     2.3240     0.1460 nb         1 J1I      -0.206000
     10 O02         -8.4730    -1.2280    -0.8850 oh         1 J1I      -0.704000
     11 OP2          2.2990    -4.7790    -0.0140 o          1 J1I      -0.929833
     12 C03         -6.3280     3.0380    -0.6450 ca         1 J1I      -0.090600
     13 N03         -6.4700     1.0040     0.1390 na         1 J1I      -0.287300
     14 O03         -8.0070    -2.8980     1.2800 oh         1 J1I      -0.708000
     15 OP1         -0.2160    -5.0350     0.4310 o          1 J1I      -0.929833
     16 C04         -6.8570     4.2990    -0.9730 ca         1 J1I       0.438900
     17 N04         -5.0700     2.5020    -0.7400 nc         1 J1I      -0.570100
     18 C05         -5.1950     1.2960    -0.2680 cd         1 J1I       0.437700
     19 N05         -6.1200     5.2700    -1.5180 nv         1 J1I      -1.071900
     20 C06         -6.9150    -2.6000     0.4510 c5         1 J1I       0.106300
     21 N06          0.7940    -1.9310     0.7270 n3         1 J1I      -0.669600
     22 C07         -7.1810    -1.3320    -0.3670 c5         1 J1I       0.073300
     23 N07          4.1440    -0.7060    -0.2850 ns         1 J1I      -0.458900
     24 O07          6.5170     2.0640     2.7140 o          1 J1I      -0.520000
     25 C08         -6.9520    -0.2440     0.6860 c5         1 J1I       0.319300
     26 N08          8.1780     3.3570     1.8720 ns         1 J1I      -0.455400
     27 C09         -5.7510    -2.1390     1.3170 c5         1 J1I       0.180300
     28 N09          8.9180     3.2590    -0.3520 nc         1 J1I      -0.783300
     29 C10         -4.4110    -2.3430     0.6260 c3         1 J1I       0.031600
     30 N10          7.9410     1.7410    -1.7620 nu         1 J1I      -0.797200
     31 C11         -1.6490    -2.1210     0.7140 c3         1 J1I       0.085600
     32 N11          6.2220     0.8510     0.1360 nf         1 J1I      -0.481300
     33 C12         -0.4430    -1.2530     1.0500 c3         1 J1I       0.203800
     34 C13          1.8930    -1.0100     0.5470 c3         1 J1I       0.182800
     35 C14          3.0410    -1.6390    -0.2320 c3         1 J1I       0.076000
     36 C15          1.1050    -3.0020     1.6840 c3         1 J1I      -0.141200
     37 C17          8.9660     3.7800     0.8550 cd         1 J1I       0.761800
     38 C18          8.0390     2.2640    -0.5390 cc         1 J1I       0.446600
     39 C19          7.1770     1.7750     0.4490 cd         1 J1I      -0.199600
     40 C20          7.2120     2.3510     1.7500 c          1 J1I       0.614200
     41 C21          7.2750     0.4700    -2.0670 c6         1 J1I       0.203900
     42 C22          6.2000     0.2730    -1.0020 ce         1 J1I       0.321300
     43 C23          5.1090    -0.7400    -1.2110 c          1 J1I       0.512800
     44 C24          6.7210     0.6040    -3.4860 c3         1 J1I      -0.100600
     45 S           -3.1270    -1.3700     1.4570 ss         1 J1I      -0.502000
     46 C02         -7.2140     2.1230    -0.0970 ca         1 J1I       0.121500
     47 HN2          9.9170     5.1880     2.0110 hn         1 J1I       0.503000
     48 HN3         10.4370     5.0750     0.3700 hn         1 J1I       0.503000
     49 HC3          8.7450    -0.7260    -0.9960 hc         1 J1I       0.049033
     50 HC1          7.8200    -1.6290    -2.2050 hc         1 J1I       0.049033
     51 HC2          9.0900    -0.5150    -2.7180 hc         1 J1I       0.049033
     52 H021        -8.5130    -1.7110    -1.7170 ho         1 J1I       0.508000
     53 H031        -8.8110    -2.8100     0.7540 ho         1 J1I       0.509000
     54 H051        -4.3860     0.5870    -0.1590 h5         1 J1I       0.108800
     55 H053        -6.5160     6.1840    -1.6570 hn         1 J1I       0.499000
     56 H052        -5.1260     5.1660    -1.6190 hn         1 J1I       0.499000
     57 H061        -6.6380    -3.4520    -0.1850 h1         1 J1I       0.067700
     58 H071        -6.4240    -1.2430    -1.1570 h1         1 J1I       0.065700
     59 H072         4.2880    -0.0710     0.4860 hn         1 J1I       0.322500
     60 H081        -7.8930    -0.0090     1.1960 h2         1 J1I       0.106700
     61 H01          8.2570     3.7990     2.7790 hn         1 J1I       0.314500
     62 H091        -5.7370    -2.6570     2.2790 h1         1 J1I       0.110700
     63 H102        -4.1550    -3.4030     0.6800 h1         1 J1I       0.071700
     64 H101        -4.4500    -2.0680    -0.4320 h1         1 J1I       0.071700
     65 H103         8.5700     2.1050    -2.4630 hn         1 J1I       0.486000
     66 H112        -1.7750    -2.1660    -0.3700 h1         1 J1I       0.111200
     67 H122        -0.4810    -0.9550     2.1130 h1         1 J1I      -0.002800
     68 H121        -0.5120    -0.3310     0.4670 h1         1 J1I      -0.002800
     69 H132         1.5450    -0.1360    -0.0110 h1         1 J1I      -0.012800
     70 H131         2.2770    -0.6310     1.5140 h1         1 J1I      -0.012800
     71 H142         2.7060    -1.8650    -1.2440 h1         1 J1I       0.112200
     72 H141         3.3340    -2.5920     0.2140 h1         1 J1I       0.112200
     73 H152         0.3690    -2.9790     2.5000 h1         1 J1I       0.004700
     74 H151         2.0640    -2.7820     2.1750 h1         1 J1I       0.004700
     75 H243         6.3550    -0.3450    -3.8640 hc         1 J1I       0.049033
     76 H241         5.9130     1.3340    -3.5290 hc         1 J1I       0.049033
     77 H242         7.5180     0.9420    -4.1520 hc         1 J1I       0.049033
     78 H111        -1.5170    -3.1430     1.0680 h1         1 J1I       0.111200
     79 H02         -9.9310     3.7830    -0.0310 h5         1 J1I       0.032100
@<TRIPOS>BOND
     1     1    37 1   
     2     1    47 1   
     3     1    48 1   
     4     2    41 1   
     5     2    49 1   
     6     2    50 1   
     7     2    51 1   
     8     3    43 2   
     9     4     8 1   
    10     4    11 1   
    11     4    15 1   
    12     4    36 1   
    13     5     6 ar  
    14     5     9 ar  
    15     5    79 1   
    16     6    16 ar  
    17     7    25 1   
    18     7    27 1   
    19     9    46 ar  
    20    10    22 1   
    21    10    52 1   
    22    12    16 ar  
    23    12    17 1   
    24    12    46 ar  
    25    13    18 1   
    26    13    25 1   
    27    13    46 1   
    28    14    20 1   
    29    14    53 1   
    30    16    19 1   
    31    17    18 2   
    32    18    54 1   
    33    19    55 1   
    34    19    56 1   
    35    20    22 1   
    36    20    27 1   
    37    20    57 1   
    38    21    33 1   
    39    21    34 1   
    40    21    36 1   
    41    22    25 1   
    42    22    58 1   
    43    23    35 1   
    44    23    43 1   
    45    23    59 1   
    46    24    40 2   
    47    25    60 1   
    48    26    37 1   
    49    26    40 1   
    50    26    61 1   
    51    27    29 1   
    52    27    62 1   
    53    28    37 2   
    54    28    38 1   
    55    29    45 1   
    56    29    63 1   
    57    29    64 1   
    58    30    38 1   
    59    30    41 1   
    60    30    65 1   
    61    31    33 1   
    62    31    45 1   
    63    31    66 1   
    64    31    78 1   
    65    32    39 1   
    66    32    42 2   
    67    33    67 1   
    68    33    68 1   
    69    34    35 1   
    70    34    69 1   
    71    34    70 1   
    72    35    71 1   
    73    35    72 1   
    74    36    73 1   
    75    36    74 1   
    76    38    39 2   
    77    39    40 1   
    78    41    42 1   
    79    41    44 1   
    80    42    43 1   
    81    44    75 1   
    82    44    76 1   
    83    44    77 1   
@<TRIPOS>SUBSTRUCTURE
     1 J1I         1 TEMP              0 ****  ****    0 ROOT
