@<TRIPOS>MOLECULE
J1I
   79    83     1     0     0
SMALL
No Charge or Current Charge


@<TRIPOS>ATOM
      1 N           10.4740     3.9830     1.8780 nv         1 J1I      -1.070200
      2 C            8.1320    -0.4370    -2.0310 c3         1 J1I      -0.100600
      3 O            5.0080    -0.7990    -2.4840 o          1 J1I      -0.623100
      4 P01         -0.1400    -4.1410    -1.4560 p5         1 J1I       1.300500
      5 C01         -7.8070     1.5350    -2.5470 ca         1 J1I       0.160900
      6 N01         -6.8570     2.3050    -3.1270 nb         1 J1I      -0.318000
      7 O01         -6.2060    -0.3100     2.7530 os         1 J1I      -0.429000
      8 OP3          0.2540    -5.5740    -1.3040 o          1 J1I      -0.929833
      9 N02         -7.7590     0.9850    -1.3100 nb         1 J1I      -0.206000
     10 O02         -9.1090    -1.2550     0.9300 oh         1 J1I      -0.704000
     11 OP2          0.3640    -3.6230    -2.7640 o          1 J1I      -0.929833
     12 C03         -5.6220     2.0090    -1.0890 ca         1 J1I      -0.090600
     13 N03         -6.2820     0.8450     0.6710 na         1 J1I      -0.287300
     14 O03         -8.2820    -2.3570     3.1990 oh         1 J1I      -0.708000
     15 OP1         -1.6280    -4.0260    -1.4060 o          1 J1I      -0.929833
     16 C04         -5.7600     2.5380    -2.3910 ca         1 J1I       0.438900
     17 N04         -4.5800     2.1570    -0.1810 nc         1 J1I      -0.570100
     18 C05         -5.0210     1.4410     0.8720 cd         1 J1I       0.437700
     19 N05         -4.8100     3.3190    -2.9710 nv         1 J1I      -1.071900
     20 C06         -7.2720    -2.3260     2.1840 c5         1 J1I       0.106300
     21 N06          0.4630    -1.6480     0.1850 n3         1 J1I      -0.669600
     22 C07         -7.6730    -1.2880     1.0920 c5         1 J1I       0.073300
     23 N07          3.8790    -0.0880    -0.6580 ns         1 J1I      -0.458900
     24 O07          6.2320     2.7780     2.7910 o          1 J1I      -0.520000
     25 C08         -7.0500     0.0590     1.6360 c5         1 J1I       0.319300
     26 N08          8.3400     3.3670     2.3100 ns         1 J1I      -0.455400
     27 C09         -5.9190    -1.7270     2.6760 c5         1 J1I       0.180300
     28 N09          9.4050     2.9510     0.2570 nc         1 J1I      -0.783300
     29 C10         -4.7120    -2.0000     1.7320 c3         1 J1I       0.031600
     30 N10          8.3800     1.8970    -1.3930 nu         1 J1I      -0.797200
     31 C11         -1.9610    -1.8410     1.0120 c3         1 J1I       0.085600
     32 N11          5.9630     1.5940     0.0600 nf         1 J1I      -0.481300
     33 C12         -0.5280    -1.3080     1.2430 c3         1 J1I       0.203800
     34 C13          1.7400    -0.9110     0.3660 c3         1 J1I       0.182800
     35 C14          2.6770    -0.9120    -0.8680 c3         1 J1I       0.076000
     36 C15          0.6370    -3.1390    -0.0350 c3         1 J1I      -0.141200
     37 C17          9.3620     3.4150     1.4630 cd         1 J1I       0.761800
     38 C18          8.2480     2.3650    -0.1430 cc         1 J1I       0.446600
     39 C19          7.0950     2.2230     0.6210 cd         1 J1I      -0.199600
     40 C20          7.1570     2.8000     1.9930 c          1 J1I       0.614200
     41 C21          7.4080     0.9390    -1.9480 c6         1 J1I       0.203900
     42 C22          6.1130     0.8560    -1.0450 ce         1 J1I       0.321300
     43 C23          4.9880    -0.0830    -1.4870 c          1 J1I       0.512800
     44 C24          7.0690     1.4370    -3.3850 c3         1 J1I      -0.100600
     45 S           -3.1270    -1.2460     2.3370 ss         1 J1I      -0.502000
     46 C02         -6.6440     1.2370    -0.5930 ca         1 J1I       0.121500
     47 HN2         10.6830     3.8970     2.8640 hn         1 J1I       0.503000
     48 HN3         11.2550     3.8150     1.2580 hn         1 J1I       0.503000
     49 HC3          8.3720    -0.8160    -1.0300 hc         1 J1I       0.049033
     50 HC1          7.5280    -1.1980    -2.5350 hc         1 J1I       0.049033
     51 HC2          9.0740    -0.3610    -2.5880 hc         1 J1I       0.049033
     52 H021        -9.3030    -0.7540     0.1010 ho         1 J1I       0.508000
     53 H031        -9.0710    -1.9960     2.7180 ho         1 J1I       0.509000
     54 H051        -4.4900     1.3200     1.8100 h5         1 J1I       0.108800
     55 H053        -5.0840     3.8960    -3.7610 hn         1 J1I       0.499000
     56 H052        -4.0800     3.6850    -2.3640 hn         1 J1I       0.499000
     57 H061        -7.1340    -3.3280     1.7520 h1         1 J1I       0.067700
     58 H071        -7.1950    -1.5600     0.1400 h1         1 J1I       0.065700
     59 H072         3.9220     0.5260     0.1500 hn         1 J1I       0.322500
     60 H081        -7.8440     0.7250     1.9960 h2         1 J1I       0.106700
     61 H01          8.4130     3.7850     3.2210 hn         1 J1I       0.314500
     62 H091        -5.6620    -2.0980     3.6770 h1         1 J1I       0.110700
     63 H102        -4.5720    -3.0870     1.6540 h1         1 J1I       0.071700
     64 H101        -4.9220    -1.6210     0.7240 h1         1 J1I       0.071700
     65 H103         9.3380     1.9200    -1.7280 hn         1 J1I       0.486000
     66 H112        -2.3130    -1.5020     0.0300 h1         1 J1I       0.111200
     67 H122        -0.1700    -1.6800     2.2130 h1         1 J1I      -0.002800
     68 H121        -0.5970    -0.2150     1.3270 h1         1 J1I      -0.002800
     69 H132         1.5170     0.1390     0.6010 h1         1 J1I      -0.012800
     70 H131         2.2850    -1.3230     1.2260 h1         1 J1I      -0.012800
     71 H142         2.1250    -0.5240    -1.7340 h1         1 J1I       0.112200
     72 H141         2.9840    -1.9390    -1.1000 h1         1 J1I       0.112200
     73 H152         0.3340    -3.6680     0.8780 h1         1 J1I       0.004700
     74 H151         1.7040    -3.3670    -0.1430 h1         1 J1I       0.004700
     75 H243         6.4380     0.7300    -3.9350 hc         1 J1I       0.049033
     76 H241         6.5400     2.3970    -3.3540 hc         1 J1I       0.049033
     77 H242         7.9770     1.5810    -3.9820 hc         1 J1I       0.049033
     78 H111        -1.9460    -2.9370     1.0120 h1         1 J1I       0.111200
     79 H02         -8.7020     1.3380    -3.1340 h5         1 J1I       0.032100
@<TRIPOS>BOND
     1     1    37 1   
     2     1    47 1   
     3     1    48 1   
     4     2    41 1   
     5     2    49 1   
     6     2    50 1   
     7     2    51 1   
     8     3    43 2   
     9     4     8 1   
    10     4    11 1   
    11     4    15 1   
    12     4    36 1   
    13     5     6 ar  
    14     5     9 ar  
    15     5    79 1   
    16     6    16 ar  
    17     7    25 1   
    18     7    27 1   
    19     9    46 ar  
    20    10    22 1   
    21    10    52 1   
    22    12    16 ar  
    23    12    17 1   
    24    12    46 ar  
    25    13    18 1   
    26    13    25 1   
    27    13    46 1   
    28    14    20 1   
    29    14    53 1   
    30    16    19 1   
    31    17    18 2   
    32    18    54 1   
    33    19    55 1   
    34    19    56 1   
    35    20    22 1   
    36    20    27 1   
    37    20    57 1   
    38    21    33 1   
    39    21    34 1   
    40    21    36 1   
    41    22    25 1   
    42    22    58 1   
    43    23    35 1   
    44    23    43 1   
    45    23    59 1   
    46    24    40 2   
    47    25    60 1   
    48    26    37 1   
    49    26    40 1   
    50    26    61 1   
    51    27    29 1   
    52    27    62 1   
    53    28    37 2   
    54    28    38 1   
    55    29    45 1   
    56    29    63 1   
    57    29    64 1   
    58    30    38 1   
    59    30    41 1   
    60    30    65 1   
    61    31    33 1   
    62    31    45 1   
    63    31    66 1   
    64    31    78 1   
    65    32    39 1   
    66    32    42 2   
    67    33    67 1   
    68    33    68 1   
    69    34    35 1   
    70    34    69 1   
    71    34    70 1   
    72    35    71 1   
    73    35    72 1   
    74    36    73 1   
    75    36    74 1   
    76    38    39 2   
    77    39    40 1   
    78    41    42 1   
    79    41    44 1   
    80    42    43 1   
    81    44    75 1   
    82    44    76 1   
    83    44    77 1   
@<TRIPOS>SUBSTRUCTURE
     1 J1I         1 TEMP              0 ****  ****    0 ROOT
