@<TRIPOS>MOLECULE
J1J
   65    67     1     0     0
SMALL
No Charge or Current Charge


@<TRIPOS>ATOM
      1 C25          2.0760    -0.1520    -0.5720 c          1 J1J       0.629700
      2 O26          1.9710    -0.9660    -1.4790 o          1 J1J      -0.602100
      3 C27          3.3950     0.5070    -0.2380 ca         1 J1J      -0.199600
      4 C28          3.5260     1.4420     0.8170 ca         1 J1J      -0.021000
      5 C29          4.7730     2.0240     1.0940 ca         1 J1J      -0.188000
      6 C30          5.8960     1.6810     0.3300 ca         1 J1J       0.137600
      7 C31          5.7960     0.7560    -0.7190 ca         1 J1J      -0.159800
      8 C32          4.5400     0.1720    -0.9970 ca         1 J1J       0.030000
      9 C33          6.9980     0.4260    -1.4930 cc         1 J1J       0.246900
     10 C34          8.1820     1.0380    -1.1600 cd         1 J1J      -0.438200
     11 C35          8.3120     2.0100    -0.0650 c          1 J1J       0.588200
     12 O36          9.3610     2.5540     0.2330 o          1 J1J      -0.551000
     13 N37          7.1440     2.2540     0.5970 ns         1 J1J      -0.380100
     14 O38          6.8910    -0.4600    -2.4950 oh         1 J1J      -0.516100
     15 N24          0.9900     0.2170     0.1900 ns         1 J1J      -0.493900
     16 C22         -1.4570     0.7100     0.2550 c          1 J1J       0.589100
     17 O23         -1.2200     1.8450     0.6510 o          1 J1J      -0.609100
     18 C20         -0.5400    -1.5070     1.1620 c3         1 J1J      -0.043100
     19 C17          0.5340    -2.5880     1.0880 ca         1 J1J      -0.083300
     20 C16          1.6480    -2.5460     1.9490 ca         1 J1J      -0.100500
     21 C18          0.4230    -3.6330     0.1510 ca         1 J1J      -0.100500
     22 C15          2.6430    -3.5370     1.8720 ca         1 J1J      -0.105500
     23 C19          1.4160    -4.6250     0.0750 ca         1 J1J      -0.105500
     24 C14          2.5270    -4.5770     0.9340 ca         1 J1J      -0.104000
     25 C2          -9.0160     1.4330    -0.5810 c3         1 J1J       0.137800
     26 C3          -7.7570     0.5430    -0.6500 c3         1 J1J      -0.093400
     27 C4          -6.4610     1.3070    -0.3020 c3         1 J1J      -0.073400
     28 C5          -5.1990     0.4190    -0.3700 c3         1 J1J      -0.095400
     29 N7         -11.3150     0.7190     1.0990 nv         1 J1J      -1.044700
     30 C8         -11.1630     0.4030    -0.1590 c2         1 J1J       0.790100
     31 C21         -0.3630    -0.3850     0.1030 c3         1 J1J       0.031700
     32 N10        -12.2280    -0.2740    -0.4740 nv         1 J1J      -1.044700
     33 C12         -3.9090     1.1850    -0.0220 c3         1 J1J       0.099000
     34 N13         -2.7320     0.3180    -0.0940 ns         1 J1J      -0.499900
     35 N26        -10.2130     0.6490    -0.9420 n2         1 J1J      -0.734900
     36 H24          1.1410     0.9410     0.8800 hn         1 J1J       0.333500
     37 H28          2.6770     1.7290     1.4320 ha         1 J1J       0.118000
     38 H32          4.4510    -0.5490    -1.8080 ha         1 J1J       0.153000
     39 H29          4.8630     2.7410     1.9060 ha         1 J1J       0.125000
     40 H37          7.1950     2.9190     1.3580 hn         1 J1J       0.330500
     41 H34          9.1060     0.8400    -1.6880 ha         1 J1J       0.210000
     42 H38          7.7850    -0.5460    -2.8850 ho         1 J1J       0.480000
     43 H21         -0.4940    -0.8220    -0.8950 h1         1 J1J       0.091700
     44 H13         -2.8510    -0.6340    -0.4200 hn         1 J1J       0.316500
     45 H201        -1.5290    -1.9650     1.0410 hc         1 J1J       0.057700
     46 H202        -0.5430    -1.0520     2.1610 hc         1 J1J       0.057700
     47 H16          1.7490    -1.7420     2.6750 ha         1 J1J       0.106500
     48 H18         -0.4300    -3.6750    -0.5220 ha         1 J1J       0.106500
     49 H15          3.5020    -3.4970     2.5370 ha         1 J1J       0.112500
     50 H19          1.3260    -5.4290    -0.6530 ha         1 J1J       0.112500
     51 H14          3.2960    -5.3440     0.8740 ha         1 J1J       0.113000
     52 H21C        -9.0880     1.8650     0.4260 h1         1 J1J       0.037200
     53 H22C        -8.8940     2.2720    -1.2800 h1         1 J1J       0.037200
     54 H31C        -7.8740    -0.3020     0.0410 hc         1 J1J       0.041200
     55 H32C        -7.6670     0.1230    -1.6600 hc         1 J1J       0.041200
     56 H41C        -6.3450     2.1520    -0.9920 hc         1 J1J       0.042200
     57 H42C        -6.5510     1.7280     0.7080 hc         1 J1J       0.042200
     58 H51C        -5.3130    -0.4250     0.3220 hc         1 J1J       0.043700
     59 H52C        -5.1070    -0.0000    -1.3800 hc         1 J1J       0.043700
     60 H121        -3.7750     2.0220    -0.7210 h1         1 J1J       0.056200
     61 H122        -3.9870     1.5940     0.9940 h1         1 J1J       0.056200
     62 H71N       -11.7900    -0.0270     1.5830 hn         1 J1J       0.460250
     63 H72N       -10.4420     0.9890     1.5260 hn         1 J1J       0.460250
     64 H101       -13.0530     0.2030    -0.1430 hn         1 J1J       0.460250
     65 H102       -12.2450    -0.4570    -1.4680 hn         1 J1J       0.460250
@<TRIPOS>BOND
     1     1     2 2   
     2     1     3 1   
     3     1    15 1   
     4     3     4 ar  
     5     3     8 ar  
     6     4     5 ar  
     7     4    37 1   
     8     5     6 ar  
     9     5    39 1   
    10     6     7 ar  
    11     6    13 1   
    12     7     8 ar  
    13     7     9 1   
    14     8    38 1   
    15     9    10 2   
    16     9    14 1   
    17    10    11 1   
    18    10    41 1   
    19    11    12 2   
    20    11    13 1   
    21    13    40 1   
    22    14    42 1   
    23    15    31 1   
    24    15    36 1   
    25    16    17 2   
    26    16    31 1   
    27    16    34 1   
    28    18    19 1   
    29    18    31 1   
    30    18    45 1   
    31    18    46 1   
    32    19    20 ar  
    33    19    21 ar  
    34    20    22 ar  
    35    20    47 1   
    36    21    23 ar  
    37    21    48 1   
    38    22    24 ar  
    39    22    49 1   
    40    23    24 ar  
    41    23    50 1   
    42    24    51 1   
    43    25    26 1   
    44    25    35 1   
    45    25    52 1   
    46    25    53 1   
    47    26    27 1   
    48    26    54 1   
    49    26    55 1   
    50    27    28 1   
    51    27    56 1   
    52    27    57 1   
    53    28    33 1   
    54    28    58 1   
    55    28    59 1   
    56    29    30 1   
    57    29    62 1   
    58    29    63 1   
    59    30    32 1   
    60    30    35 2   
    61    31    43 1   
    62    32    64 1   
    63    32    65 1   
    64    33    34 1   
    65    33    60 1   
    66    33    61 1   
    67    34    44 1   
@<TRIPOS>SUBSTRUCTURE
     1 J1J         1 TEMP              0 ****  ****    0 ROOT
