@<TRIPOS>MOLECULE
J1J
   65    67     1     0     0
SMALL
abcg2


@<TRIPOS>ATOM
      1 C25          1.8970    -0.2700    -0.4840 c          1 J1J       0.629700
      2 O26          1.7510    -0.9930    -1.4580 o          1 J1J      -0.602100
      3 C27          3.2360     0.2890    -0.1370 ca         1 J1J      -0.199600
      4 C28          3.6080     0.6200     1.1740 ca         1 J1J      -0.021000
      5 C29          4.8680     1.0940     1.4570 ca         1 J1J      -0.188000
      6 C30          5.7980     1.2620     0.4260 ca         1 J1J       0.137600
      7 C31          5.4400     0.9340    -0.8910 ca         1 J1J      -0.159800
      8 C32          4.1630     0.4370    -1.1520 ca         1 J1J       0.030000
      9 C33          6.4380     1.1270    -1.9170 cc         1 J1J       0.246900
     10 C34          7.6690     1.6030    -1.6040 cd         1 J1J      -0.438200
     11 C35          8.0370     1.9340    -0.2500 c          1 J1J       0.588200
     12 O36          9.1350     2.3600     0.0870 o          1 J1J      -0.551000
     13 N37          7.0490     1.7370     0.6890 ns         1 J1J      -0.380100
     14 O38          6.0570     0.8060    -3.1490 oh         1 J1J      -0.516100
     15 N24          0.8850     0.0870     0.3300 ns         1 J1J      -0.493900
     16 C22         -1.4670     0.6570     0.2900 c          1 J1J       0.589100
     17 O23         -1.2740     1.6560     0.9690 o          1 J1J      -0.609100
     18 C20         -0.7090    -1.4520     1.3970 c3         1 J1J      -0.043100
     19 C17          0.3180    -2.5460     1.4380 ca         1 J1J      -0.083300
     20 C16          1.4110    -2.4650     2.2960 ca         1 J1J      -0.100500
     21 C18          0.2230    -3.6390     0.5800 ca         1 J1J      -0.100500
     22 C15          2.3890    -3.4510     2.2970 ca         1 J1J      -0.105500
     23 C19          1.1950    -4.6290     0.5800 ca         1 J1J      -0.105500
     24 C14          2.2840    -4.5370     1.4390 ca         1 J1J      -0.104000
     25 C2          -8.7690     1.5890    -0.8740 c3         1 J1J       0.137800
     26 C3          -7.5420     0.6770    -0.8380 c3         1 J1J      -0.093400
     27 C4          -6.2400     1.4450    -0.6480 c3         1 J1J      -0.073400
     28 C5          -5.0220     0.5320    -0.6110 c3         1 J1J      -0.095400
     29 N7         -10.3160     0.4180     1.1730 nv         1 J1J      -1.044700
     30 C8         -10.6130     0.3170    -0.1650 c2         1 J1J       0.790100
     31 C21         -0.4380    -0.4680     0.2390 c3         1 J1J       0.031700
     32 N10        -11.7120    -0.4740    -0.4270 nv         1 J1J      -1.044700
     33 C12         -3.7320     1.3120    -0.4180 c3         1 J1J       0.099000
     34 N13         -2.5860     0.4240    -0.4020 ns         1 J1J      -0.499900
     35 N26         -9.9930     0.8730    -1.1370 n2         1 J1J      -0.734900
     36 H24          1.0380     0.7770     1.0480 hn         1 J1J       0.333500
     37 H28          2.9200     0.4810     1.9980 ha         1 J1J       0.118000
     38 H32          3.8880     0.1710    -2.1630 ha         1 J1J       0.153000
     39 H29          5.1460     1.3280     2.4760 ha         1 J1J       0.125000
     40 H37          7.2860     1.9550     1.6470 hn         1 J1J       0.330500
     41 H34          8.4230     1.7480    -2.3680 ha         1 J1J       0.210000
     42 H38          6.7650     0.9680    -3.7840 ho         1 J1J       0.480000
     43 H21         -0.5090    -1.0060    -0.7070 h1         1 J1J       0.091700
     44 H13         -2.6230    -0.3890    -0.9960 hn         1 J1J       0.316500
     45 H201        -1.7100    -1.8710     1.2690 hc         1 J1J       0.057700
     46 H202        -0.7120    -0.8990     2.3390 hc         1 J1J       0.057700
     47 H16          1.4980    -1.6260     2.9770 ha         1 J1J       0.106500
     48 H18         -0.6220    -3.7180    -0.0950 ha         1 J1J       0.106500
     49 H15          3.2320    -3.3720     2.9720 ha         1 J1J       0.112500
     50 H19          1.1020    -5.4750    -0.0890 ha         1 J1J       0.112500
     51 H14          3.0430    -5.3080     1.4400 ha         1 J1J       0.113000
     52 H21C        -8.7980     2.1870     0.0510 h1         1 J1J       0.037200
     53 H22C        -8.6250     2.3180    -1.6770 h1         1 J1J       0.037200
     54 H31C        -7.6510    -0.0570    -0.0330 hc         1 J1J       0.041200
     55 H32C        -7.5020     0.1040    -1.7690 hc         1 J1J       0.041200
     56 H41C        -6.1250     2.1730    -1.4580 hc         1 J1J       0.042200
     57 H42C        -6.2880     2.0260     0.2800 hc         1 J1J       0.042200
     58 H51C        -5.1300    -0.1950     0.2000 hc         1 J1J       0.043700
     59 H52C        -4.9710    -0.0430    -1.5420 hc         1 J1J       0.043700
     60 H121        -3.6230     2.0560    -1.2130 h1         1 J1J       0.056200
     61 H122        -3.7600     1.8550     0.5270 h1         1 J1J       0.056200
     62 H71N       -10.6400    -0.3290     1.7660 hn         1 J1J       0.460250
     63 H72N        -9.3860     0.7150     1.4160 hn         1 J1J       0.460250
     64 H101       -12.4330    -0.4840     0.2770 hn         1 J1J       0.460250
     65 H102       -12.0860    -0.3400    -1.3530 hn         1 J1J       0.460250
@<TRIPOS>BOND
     1     1     2 2   
     2     1     3 1   
     3     1    15 1   
     4     3     4 ar  
     5     3     8 ar  
     6     4     5 ar  
     7     4    37 1   
     8     5     6 ar  
     9     5    39 1   
    10     6     7 ar  
    11     6    13 1   
    12     7     8 ar  
    13     7     9 1   
    14     8    38 1   
    15     9    10 2   
    16     9    14 1   
    17    10    11 1   
    18    10    41 1   
    19    11    12 2   
    20    11    13 1   
    21    13    40 1   
    22    14    42 1   
    23    15    31 1   
    24    15    36 1   
    25    16    17 2   
    26    16    31 1   
    27    16    34 1   
    28    18    19 1   
    29    18    31 1   
    30    18    45 1   
    31    18    46 1   
    32    19    20 ar  
    33    19    21 ar  
    34    20    22 ar  
    35    20    47 1   
    36    21    23 ar  
    37    21    48 1   
    38    22    24 ar  
    39    22    49 1   
    40    23    24 ar  
    41    23    50 1   
    42    24    51 1   
    43    25    26 1   
    44    25    35 1   
    45    25    52 1   
    46    25    53 1   
    47    26    27 1   
    48    26    54 1   
    49    26    55 1   
    50    27    28 1   
    51    27    56 1   
    52    27    57 1   
    53    28    33 1   
    54    28    58 1   
    55    28    59 1   
    56    29    30 1   
    57    29    62 1   
    58    29    63 1   
    59    30    32 1   
    60    30    35 2   
    61    31    43 1   
    62    32    64 1   
    63    32    65 1   
    64    33    34 1   
    65    33    60 1   
    66    33    61 1   
    67    34    44 1   
@<TRIPOS>SUBSTRUCTURE
     1 J1J         1 TEMP              0 ****  ****    0 ROOT
