@<TRIPOS>MOLECULE
J1K
   25    25     1     0     0
SMALL
bcc


@<TRIPOS>ATOM
      1 CA          -3.9730    -0.5560    -0.1460 c          1 J1K       0.922200
      2 CB           1.6240     1.0280     0.2590 c          1 J1K       0.688700
      3 C1          -2.5040    -0.1570    -0.0440 ca         1 J1K      -0.108600
      4 C2          -2.1230     1.1830    -0.0840 ca         1 J1K      -0.120000
      5 C3          -0.7900     1.5480     0.0180 ca         1 J1K      -0.121000
      6 C4           0.2020     0.5790     0.1440 ca         1 J1K      -0.187600
      7 C5          -0.1750    -0.7620     0.1910 ca         1 J1K      -0.121000
      8 C6          -1.5100    -1.1210     0.1000 ca         1 J1K      -0.120000
      9 C7           3.9770     0.3720    -0.0630 c3         1 J1K       0.102000
     10 C8           4.7070    -0.8500     0.4530 c3         1 J1K       0.117400
     11 N1B          2.5530     0.1390    -0.1290 ns         1 J1K      -0.576900
     12 O1A         -4.7940     0.3730    -0.2570 o          1 J1K      -0.821300
     13 O2A         -4.2200    -1.7760    -0.1080 o          1 J1K      -0.821300
     14 O2B          1.8990     2.1460     0.6790 o          1 J1K      -0.638100
     15 O9           4.4600    -1.9220    -0.4300 oh         1 J1K      -0.601800
     16 H1          -2.8800     1.9470    -0.1910 ha         1 J1K       0.148500
     17 H2          -0.5180     2.5960    -0.0090 ha         1 J1K       0.115000
     18 H3           0.5620    -1.5440     0.3280 ha         1 J1K       0.115000
     19 H4          -1.7860    -2.1660     0.1480 ha         1 J1K       0.148500
     20 H5           4.1690     1.2070     0.6090 h1         1 J1K       0.053700
     21 H6           4.3650     0.6530    -1.0470 h1         1 J1K       0.053700
     22 H7           5.7750    -0.6110     0.5170 h1         1 J1K       0.022700
     23 H8           4.3590    -1.0730     1.4690 h1         1 J1K       0.022700
     24 H9           2.2600    -0.7090    -0.5850 hn         1 J1K       0.329500
     25 H11          4.8050    -2.7280    -0.0360 ho         1 J1K       0.400000
@<TRIPOS>BOND
     1     1     3 1   
     2     1    12 1   
     3     1    13 1   
     4     2     6 1   
     5     2    11 1   
     6     2    14 2   
     7     3     4 ar  
     8     3     8 ar  
     9     4     5 ar  
    10     4    16 1   
    11     5     6 ar  
    12     5    17 1   
    13     6     7 ar  
    14     7     8 ar  
    15     7    18 1   
    16     8    19 1   
    17     9    10 1   
    18     9    11 1   
    19     9    20 1   
    20     9    21 1   
    21    10    15 1   
    22    10    22 1   
    23    10    23 1   
    24    11    24 1   
    25    15    25 1   
@<TRIPOS>SUBSTRUCTURE
     1 J1K         1 TEMP              0 ****  ****    0 ROOT
