@<TRIPOS>MOLECULE
J1K
   25    25     1     0     0
SMALL
No Charge or Current Charge


@<TRIPOS>ATOM
      1 CA          -4.0310    -0.5790    -0.0710 c          1 J1K       0.711600
      2 CB           1.6210     1.1080     0.0490 c          1 J1K       0.621700
      3 C1          -2.5700    -0.1530    -0.0410 ca         1 J1K      -0.108600
      4 C2          -2.2130     1.2090     0.0860 ca         1 J1K      -0.102000
      5 C3          -0.8640     1.6020     0.1130 ca         1 J1K      -0.103000
      6 C4           0.1740     0.6490     0.0160 ca         1 J1K      -0.187600
      7 C5          -0.1820    -0.7160    -0.1110 ca         1 J1K      -0.103000
      8 C6          -1.5320    -1.1070    -0.1380 ca         1 J1K      -0.102000
      9 C7           4.0280     0.3470    -0.0300 c3         1 J1K       0.102000
     10 C8           4.7980    -0.8720     0.5320 c3         1 J1K       0.140600
     11 N1B          2.5770     0.1250    -0.0540 ns         1 J1K      -0.509900
     12 O1A         -4.8960     0.2820     0.0160 o          1 J1K      -0.716000
     13 O2A         -4.2930    -1.7690    -0.1820 o          1 J1K      -0.716000
     14 O2B          1.9330     2.2860     0.1600 o          1 J1K      -0.638100
     15 O9           4.4210    -2.0760    -0.1580 oh         1 J1K      -0.664000
     16 H1          -2.9840     1.9720     0.1630 ha         1 J1K       0.130500
     17 H2          -0.6290     2.6590     0.2120 ha         1 J1K       0.097000
     18 H3           0.5750    -1.4910    -0.1890 ha         1 J1K       0.097000
     19 H4          -1.7700    -2.1640    -0.2370 ha         1 J1K       0.130500
     20 H5           4.2570     1.2250     0.5880 h1         1 J1K       0.053700
     21 H6           4.3680     0.5530    -1.0530 h1         1 J1K       0.053700
     22 H7           5.8760    -0.6920     0.4300 h1         1 J1K       0.022700
     23 H8           4.5750    -0.9680     1.6030 h1         1 J1K       0.022700
     24 H9           2.2500    -0.8270    -0.1480 hn         1 J1K       0.329500
     25 H11          4.9570    -2.8060     0.2260 ho         1 J1K       0.439000
@<TRIPOS>BOND
     1     1     3 1   
     2     1    12 1   
     3     1    13 1   
     4     2     6 1   
     5     2    11 1   
     6     2    14 2   
     7     3     4 ar  
     8     3     8 ar  
     9     4     5 ar  
    10     4    16 1   
    11     5     6 ar  
    12     5    17 1   
    13     6     7 ar  
    14     7     8 ar  
    15     7    18 1   
    16     8    19 1   
    17     9    10 1   
    18     9    11 1   
    19     9    20 1   
    20     9    21 1   
    21    10    15 1   
    22    10    22 1   
    23    10    23 1   
    24    11    24 1   
    25    15    25 1   
@<TRIPOS>SUBSTRUCTURE
     1 J1K         1 TEMP              0 ****  ****    0 ROOT
