@<TRIPOS>MOLECULE
J1L
   84    89     1     0     0
SMALL
abcg2


@<TRIPOS>ATOM
      1 C01         10.0440    10.3810    23.6370 c          1 J1L       0.722000
      2 C1          13.3630     4.9690    20.6010 c5         1 J1L       0.172300
      3 C10         13.5820     6.3720    20.0640 c3         1 J1L      -0.340400
      4 C11         11.3370     7.9880    20.8670 c6         1 J1L      -0.205700
      5 C12         10.6010     8.5080    22.0930 c6         1 J1L      -0.045400
      6 C13         10.8860     9.9760    22.3960 c6         1 J1L       0.032500
      7 C14         11.3360    10.4030    20.0530 c6         1 J1L       0.161800
      8 C15         11.1430     8.9380    19.6910 c6         1 J1L      -0.046400
      9 C18         11.5230    14.8090    23.2580 c          1 J1L       0.514800
     10 C19         11.6690    20.8460    21.4960 cc         1 J1L       0.769800
     11 C2          13.9040     3.8780    19.6660 c5         1 J1L       0.106300
     12 C20         11.6560    18.6520    20.4420 c          1 J1L       0.620200
     13 C21         11.4660    16.3070    23.1610 ce         1 J1L       0.312300
     14 C22         11.1400    17.1390    24.3990 c6         1 J1L       0.207900
     15 C23         11.9750    16.7740    25.6280 c3         1 J1L      -0.103600
     16 C24          9.6440    17.0300    24.7100 c3         1 J1L      -0.103600
     17 C25         11.5210    19.0390    22.8450 cd         1 J1L       0.461600
     18 C26         11.5510    18.1450    21.7680 cc         1 J1L      -0.214600
     19 C27         11.9550    12.7670    21.9690 c3         1 J1L       0.056000
     20 C3          12.6770     3.6050    18.7980 c5         1 J1L       0.132300
     21 C4          11.5490     3.7330    19.8250 c5         1 J1L       0.323300
     22 C5           9.0810     3.5250    19.5690 cc         1 J1L       0.425700
     23 C6           8.6080     5.1200    18.2760 ca         1 J1L      -0.096600
     24 C7           8.0400     6.1040    17.4450 ca         1 J1L       0.454900
     25 C8          10.1650     6.9100    17.1070 ca         1 J1L       0.186900
     26 C9           9.9840     5.1640    18.4340 ca         1 J1L       0.135500
     27 N1          10.2790     4.1200    19.2710 na         1 J1L      -0.291300
     28 N10         11.6870    20.0520    20.3990 ns         1 J1L      -0.456400
     29 N11         11.6020    16.7990    21.9920 nf         1 J1L      -0.484300
     30 N12         11.4720    18.5310    24.0760 nu         1 J1L      -0.793200
     31 N2           8.0620     4.0850    18.9930 nd         1 J1L      -0.554100
     32 N28         11.9150    14.1990    22.1300 ns         1 J1L      -0.480900
     33 N3           6.7270     6.1920    17.2270 nv         1 J1L      -1.060900
     34 N4           8.8610     6.9880    16.8680 nb         1 J1L      -0.299000
     35 N5          10.8100     6.0450    17.8720 nb         1 J1L      -0.246000
     36 N6          10.5660    10.7820    21.2250 n3         1 J1L      -0.692600
     37 N8          11.5890    20.3720    22.7200 nd         1 J1L      -0.782300
     38 O01          8.8090    10.4250    23.4830 o          1 J1L      -0.712000
     39 O02         13.9070     8.8460    20.9120 o          1 J1L      -0.519000
     40 O03         10.6790    10.5850    24.6890 o          1 J1L      -0.712000
     41 O04         13.1970     7.1220    22.5840 o          1 J1L      -0.519000
     42 O1          11.9760     4.6860    20.7620 os         1 J1L      -0.439000
     43 O2          14.2090     2.7040    20.3660 oh         1 J1L      -0.702000
     44 O3          12.6050     2.3520    18.1940 oh         1 J1L      -0.691000
     45 O4          11.2290    14.2060    24.2850 o          1 J1L      -0.576100
     46 S1          13.0920     7.6690    21.2280 s6         1 J1L       1.030000
     47 H1          13.8470     4.8920    21.5770 h1         1 J1L       0.096700
     48 H10         14.6500     6.5440    19.9090 h1         1 J1L       0.105200
     49 H10A        13.0640     6.5570    19.1190 h1         1 J1L       0.105200
     50 H11         10.9540     6.9970    20.6120 h1         1 J1L       0.082700
     51 H12A         9.5340     8.3990    21.8820 hc         1 J1L       0.077200
     52 H12         10.8140     7.8910    22.9670 hc         1 J1L       0.077200
     53 H02         11.9500    10.0690    22.6690 h1         1 J1L       0.017700
     54 H14         12.4070    10.6120    20.1640 h1         1 J1L       0.027200
     55 H14A        10.9900    11.0050    19.2090 h1         1 J1L       0.027200
     56 H15A        10.1160     8.7880    19.3490 hc         1 J1L       0.037700
     57 H15         11.7860     8.6810    18.8470 hc         1 J1L       0.037700
     58 H2          14.7580     4.2380    19.0780 h1         1 J1L       0.053700
     59 H23B        11.8130    17.5240    26.4050 hc         1 J1L       0.052367
     60 H23A        11.6950    15.8090    26.0360 hc         1 J1L       0.052367
     61 H23         13.0390    16.7600    25.3910 hc         1 J1L       0.052367
     62 H24B         9.3880    17.6770    25.5520 hc         1 J1L       0.052367
     63 H24          9.0440    17.3360    23.8520 hc         1 J1L       0.052367
     64 H24A         9.3760    16.0080    24.9740 hc         1 J1L       0.052367
     65 H27         12.2180    12.3150    22.9240 h1         1 J1L       0.065700
     66 H27A        12.7610    12.5350    21.2720 h1         1 J1L       0.065700
     67 H3          12.5920     4.4140    18.0650 h1         1 J1L       0.082700
     68 H4          11.3800     2.7650    20.3110 h2         1 J1L       0.094700
     69 H5           9.0360     2.6660    20.2230 h5         1 J1L       0.067800
     70 H8          10.7770     7.6560    16.6120 h5         1 J1L       0.044100
     71 HN10        11.7520    20.4720    19.4800 hn         1 J1L       0.317500
     72 HN12        11.4480    19.1910    24.8400 hn         1 J1L       0.493000
     73 HN28        12.0690    14.7890    21.3260 hn         1 J1L       0.327500
     74 HN3          6.3690     6.8690    16.5750 hn         1 J1L       0.504500
     75 HN3A         6.0950     5.4990    17.5880 hn         1 J1L       0.504500
     76 HN9         11.7140    22.7680    22.1160 hn         1 J1L       0.507500
     77 HN9A        11.7910    22.5840    20.4020 hn         1 J1L       0.507500
     78 HO2         14.9590     2.8760    20.9450 ho         1 J1L       0.507000
     79 HO3         13.1320     2.3640    17.3890 ho         1 J1L       0.510000
     80 C16         10.6140    12.2120    21.4620 c3         1 J1L       0.165800
     81 N9          11.7320    22.1620    21.3130 nv         1 J1L      -1.066200
     82 H16A        10.3620    12.7170    20.5250 h1         1 J1L       0.056700
     83 H16          9.8330    12.4840    22.1750 h1         1 J1L       0.056700
     84 O5          11.7180    18.0180    19.3990 o          1 J1L      -0.534000
@<TRIPOS>BOND
     1     1     6 1   
     2     1    38 1   
     3     1    40 1   
     4     2     3 1   
     5     2    11 1   
     6     2    42 1   
     7     2    47 1   
     8     3    46 1   
     9     3    48 1   
    10     3    49 1   
    11     4     5 1   
    12     4     8 1   
    13     4    46 1   
    14     4    50 1   
    15     5     6 1   
    16     5    51 1   
    17     5    52 1   
    18     6    36 1   
    19     6    53 1   
    20     7     8 1   
    21     7    36 1   
    22     7    54 1   
    23     7    55 1   
    24     8    56 1   
    25     8    57 1   
    26     9    13 1   
    27     9    32 1   
    28     9    45 2   
    29    10    28 1   
    30    10    37 2   
    31    10    81 1   
    32    11    20 1   
    33    11    43 1   
    34    11    58 1   
    35    12    18 1   
    36    12    28 1   
    37    12    84 2   
    38    13    14 1   
    39    13    29 2   
    40    14    15 1   
    41    14    16 1   
    42    14    30 1   
    43    15    59 1   
    44    15    60 1   
    45    15    61 1   
    46    16    62 1   
    47    16    63 1   
    48    16    64 1   
    49    17    18 2   
    50    17    30 1   
    51    17    37 1   
    52    18    29 1   
    53    19    32 1   
    54    19    65 1   
    55    19    66 1   
    56    19    80 1   
    57    20    21 1   
    58    20    44 1   
    59    20    67 1   
    60    21    27 1   
    61    21    42 1   
    62    21    68 1   
    63    22    27 1   
    64    22    31 2   
    65    22    69 1   
    66    23    24 ar  
    67    23    26 ar  
    68    23    31 1   
    69    24    33 1   
    70    24    34 ar  
    71    25    34 ar  
    72    25    35 ar  
    73    25    70 1   
    74    26    27 1   
    75    26    35 ar  
    76    28    71 1   
    77    30    72 1   
    78    32    73 1   
    79    33    74 1   
    80    33    75 1   
    81    36    80 1   
    82    39    46 2   
    83    41    46 2   
    84    43    78 1   
    85    44    79 1   
    86    76    81 1   
    87    77    81 1   
    88    80    82 1   
    89    80    83 1   
@<TRIPOS>SUBSTRUCTURE
     1 J1L         1 TEMP              0 ****  ****    0 ROOT
