@<TRIPOS>MOLECULE
J1L
   84    89     1     0     0
SMALL
No Charge or Current Charge


@<TRIPOS>ATOM
      1 C01         11.3070     9.9150    25.3380 c          1 J1L       0.722000
      2 C1          13.0680     4.7770    20.4170 c5         1 J1L       0.172300
      3 C10         13.5940     6.2260    20.4560 c3         1 J1L      -0.340400
      4 C11         11.6630     7.1980    22.4670 c6         1 J1L      -0.205700
      5 C12         11.4110     7.8410    23.8620 c6         1 J1L      -0.045400
      6 C13         11.4710     9.3990    23.8490 c6         1 J1L       0.032500
      7 C14         10.8110     9.4050    21.4320 c6         1 J1L       0.161800
      8 C15         10.7310     7.8590    21.4150 c6         1 J1L      -0.046400
      9 C18         11.2430    14.5730    23.2600 c          1 J1L       0.514800
     10 C19         11.1510    20.0790    20.1760 cc         1 J1L       0.769800
     11 C2          13.6250     3.9190    19.2280 c5         1 J1L       0.106300
     12 C20         11.6070    17.8460    19.5960 c          1 J1L       0.620200
     13 C21         11.0960    16.0090    22.7590 ce         1 J1L       0.312300
     14 C22         10.6860    17.1350    23.7890 c6         1 J1L       0.207900
     15 C23         11.7590    17.2970    24.9050 c3         1 J1L      -0.103600
     16 C24          9.3020    16.8380    24.4370 c3         1 J1L      -0.103600
     17 C25         10.8950    18.6000    21.8210 cd         1 J1L       0.461600
     18 C26         11.2700    17.5390    21.0040 cc         1 J1L      -0.214600
     19 C27         11.7860    12.2120    22.4900 c3         1 J1L       0.056000
     20 C3          12.7020     4.4150    18.0840 c5         1 J1L       0.132300
     21 C4          11.3330     4.4330    18.8490 c5         1 J1L       0.323300
     22 C5           8.9250     4.8720    18.2270 cc         1 J1L       0.425700
     23 C6           9.0440     6.8960    17.5080 ca         1 J1L      -0.096600
     24 C7           8.8050     8.1880    16.9960 ca         1 J1L       0.454900
     25 C8          11.0350     8.6430    17.2020 ca         1 J1L       0.186900
     26 C9          10.3310     6.5620    17.8500 ca         1 J1L       0.135500
     27 N1          10.2590     5.2760    18.3190 na         1 J1L      -0.291300
     28 N10         11.5150    19.1520    19.2930 ns         1 J1L      -0.456400
     29 N11         11.3140    16.3110    21.4790 nf         1 J1L      -0.484300
     30 N12         10.5630    18.4470    23.1150 nu         1 J1L      -0.793200
     31 N2           8.1440     5.8500    17.7300 nd         1 J1L      -0.554100
     32 N28         11.6010    13.6570    22.2820 ns         1 J1L      -0.480900
     33 N3           7.5660     8.6120    16.6250 nv         1 J1L      -1.060900
     34 N4           9.8030     9.0710    16.8390 nb         1 J1L      -0.299000
     35 N5          11.3560     7.4260    17.7020 nb         1 J1L      -0.246000
     36 N6          10.5430     9.9690    22.7870 n3         1 J1L      -0.692600
     37 N8          10.8340    19.9110    21.4220 nd         1 J1L      -0.782300
     38 O01         10.1720    10.0600    25.7780 o          1 J1L      -0.712000
     39 O02         13.9140     8.5070    21.7230 o          1 J1L      -0.519000
     40 O03         12.2610    10.5100    25.8250 o          1 J1L      -0.712000
     41 O04         14.1480     6.3560    23.0210 o          1 J1L      -0.519000
     42 O1          11.6400     4.8320    20.2070 os         1 J1L      -0.439000
     43 O2          13.4720     2.4990    19.4260 oh         1 J1L      -0.702000
     44 O3          12.7490     3.5010    16.9760 oh         1 J1L      -0.691000
     45 O4          11.0750    14.2110    24.4180 o          1 J1L      -0.576100
     46 S1          13.4480     7.1430    21.9980 s6         1 J1L       1.030000
     47 H1          13.2790     4.2910    21.3810 h1         1 J1L       0.096700
     48 H10         14.6700     6.2230    20.2500 h1         1 J1L       0.105200
     49 H10A        13.1040     6.8370    19.6930 h1         1 J1L       0.105200
     50 H11         11.4010     6.1340    22.5330 h1         1 J1L       0.082700
     51 H12A        10.4180     7.5360    24.2200 hc         1 J1L       0.077200
     52 H12         12.1250     7.4460    24.5990 hc         1 J1L       0.077200
     53 H02         12.4990     9.6720    23.5720 h1         1 J1L       0.017700
     54 H14         11.7980     9.7190    21.0680 h1         1 J1L       0.027200
     55 H14A        10.0750     9.7940    20.7120 h1         1 J1L       0.027200
     56 H15A         9.6940     7.5600    21.6180 hc         1 J1L       0.037700
     57 H15         10.9560     7.4870    20.4110 hc         1 J1L       0.037700
     58 H2          14.6770     4.1620    19.0210 h1         1 J1L       0.053700
     59 H23B        11.5140    18.1260    25.5790 hc         1 J1L       0.052367
     60 H23A        11.8520    16.3990    25.5250 hc         1 J1L       0.052367
     61 H23         12.7460    17.5030    24.4740 hc         1 J1L       0.052367
     62 H24B         8.9760    17.6640    25.0810 hc         1 J1L       0.052367
     63 H24          8.5310    16.6960    23.6700 hc         1 J1L       0.052367
     64 H24A         9.3160    15.9380    25.0600 hc         1 J1L       0.052367
     65 H27         12.4850    12.0590    23.3220 h1         1 J1L       0.065700
     66 H27A        12.2500    11.8010    21.5850 h1         1 J1L       0.065700
     67 H3          12.9930     5.4240    17.7650 h1         1 J1L       0.082700
     68 H4          10.9350     3.4110    18.8730 h2         1 J1L       0.094700
     69 H5           8.5950     3.8870    18.5350 h5         1 J1L       0.067800
     70 H8          11.8540     9.3510    17.0800 h5         1 J1L       0.044100
     71 HN10        11.7090    19.4160    18.3430 hn         1 J1L       0.317500
     72 HN12        10.4510    19.3120    23.6350 hn         1 J1L       0.493000
     73 HN28        11.7270    14.0360    21.3480 hn         1 J1L       0.327500
     74 HN3          7.5030     9.4140    16.0040 hn         1 J1L       0.504500
     75 HN3A         6.8450     7.9010    16.5300 hn         1 J1L       0.504500
     76 HN9         11.0060    21.9800    20.4980 hn         1 J1L       0.507500
     77 HN9A        11.8100    21.5750    19.0520 hn         1 J1L       0.507500
     78 HO2         14.1050     2.2250    20.1330 ho         1 J1L       0.507000
     79 HO3         13.0110     2.6440    17.3960 ho         1 J1L       0.510000
     80 C16         10.4580    11.4590    22.7840 c3         1 J1L       0.165800
     81 N9          11.1140    21.3190    19.7400 nv         1 J1L      -1.066200
     82 H16A         9.7230    11.7720    22.0300 h1         1 J1L       0.056700
     83 H16         10.0710    11.8130    23.7480 h1         1 J1L       0.056700
     84 O5          11.9420    17.0240    18.7560 o          1 J1L      -0.534000
@<TRIPOS>BOND
     1     1     6 1   
     2     1    38 1   
     3     1    40 1   
     4     2     3 1   
     5     2    11 1   
     6     2    42 1   
     7     2    47 1   
     8     3    46 1   
     9     3    48 1   
    10     3    49 1   
    11     4     5 1   
    12     4     8 1   
    13     4    46 1   
    14     4    50 1   
    15     5     6 1   
    16     5    51 1   
    17     5    52 1   
    18     6    36 1   
    19     6    53 1   
    20     7     8 1   
    21     7    36 1   
    22     7    54 1   
    23     7    55 1   
    24     8    56 1   
    25     8    57 1   
    26     9    13 1   
    27     9    32 1   
    28     9    45 2   
    29    10    28 1   
    30    10    37 2   
    31    10    81 1   
    32    11    20 1   
    33    11    43 1   
    34    11    58 1   
    35    12    18 1   
    36    12    28 1   
    37    12    84 2   
    38    13    14 1   
    39    13    29 2   
    40    14    15 1   
    41    14    16 1   
    42    14    30 1   
    43    15    59 1   
    44    15    60 1   
    45    15    61 1   
    46    16    62 1   
    47    16    63 1   
    48    16    64 1   
    49    17    18 2   
    50    17    30 1   
    51    17    37 1   
    52    18    29 1   
    53    19    32 1   
    54    19    65 1   
    55    19    66 1   
    56    19    80 1   
    57    20    21 1   
    58    20    44 1   
    59    20    67 1   
    60    21    27 1   
    61    21    42 1   
    62    21    68 1   
    63    22    27 1   
    64    22    31 2   
    65    22    69 1   
    66    23    24 ar  
    67    23    26 ar  
    68    23    31 1   
    69    24    33 1   
    70    24    34 ar  
    71    25    34 ar  
    72    25    35 ar  
    73    25    70 1   
    74    26    27 1   
    75    26    35 ar  
    76    28    71 1   
    77    30    72 1   
    78    32    73 1   
    79    33    74 1   
    80    33    75 1   
    81    36    80 1   
    82    39    46 2   
    83    41    46 2   
    84    43    78 1   
    85    44    79 1   
    86    76    81 1   
    87    77    81 1   
    88    80    82 1   
    89    80    83 1   
@<TRIPOS>SUBSTRUCTURE
     1 J1L         1 TEMP              0 ****  ****    0 ROOT
