@<TRIPOS>MOLECULE
J1M
   59    61     1     0     0
SMALL
abcg2


@<TRIPOS>ATOM
      1 C12         -2.2330    -0.3050    -0.3490 ca         1 J1M      -0.110800
      2 C14         -4.4150    -0.5540    -1.3690 ca         1 J1M      -0.179500
      3 C15         -5.0270    -0.0090    -0.2370 ca         1 J1M       0.159100
      4 O16         -6.3670     0.0870    -0.2730 os         1 J1M      -0.339100
      5 C17         -7.0430     0.6350     0.8540 c3         1 J1M       0.210900
      6 C18         -8.5110     0.5960     0.5540 ca         1 J1M      -0.099300
      7 C20        -10.6430    -0.5300     0.6720 ca         1 J1M      -0.114500
      8 C21        -11.2300     0.4950    -0.0590 ca         1 J1M      -0.096000
      9 C23         -9.1070     1.6190    -0.1790 ca         1 J1M      -0.083500
     10 C24         -4.2330     0.3940     0.8350 ca         1 J1M      -0.179500
     11 C25         -2.8560     0.2400     0.7700 ca         1 J1M      -0.049000
     12 C26          6.2030     1.5830     0.0460 c          1 J1M       0.624100
     13 C01          6.1380    -0.2350    -1.7920 c3         1 J1M      -0.093100
     14 C02          5.6720     0.2150    -0.4090 c3         1 J1M      -0.315000
     15 C03          4.1410     0.2590    -0.3050 c3         1 J1M      -0.076400
     16 C04          3.4110    -1.0410    -0.6340 c3         1 J1M       0.080000
     17 C06          1.2620    -0.5570    -1.6530 cc         1 J1M      -0.037400
     18 C07         -0.0790    -0.3690    -1.6360 cd         1 J1M      -0.286000
     19 C08         -0.7730    -0.4850    -0.4000 cd         1 J1M       0.090800
     20 C09         -0.0520    -0.7730     0.7260 cc         1 J1M      -0.322200
     21 C10          1.3700    -0.9530     0.7160 c          1 J1M       0.556200
     22 C13         -3.0430    -0.6910    -1.4210 ca         1 J1M      -0.049000
     23 C19         -9.2880    -0.4780     0.9740 ca         1 J1M      -0.083500
     24 C22        -10.4600     1.5700    -0.4840 ca         1 J1M      -0.114500
     25 N05          1.9690    -0.8520    -0.5350 n          1 J1M      -0.272000
     26 N28          6.9830     2.2190    -0.8330 ns         1 J1M      -0.364400
     27 O11          2.0490    -1.1960     1.7140 o          1 J1M      -0.577000
     28 O27          5.8880     2.0490     1.1260 o          1 J1M      -0.578100
     29 S30          6.4180    -0.9840     0.7790 s6         1 J1M       1.058000
     30 H1          -5.0260    -0.8750    -2.2040 ha         1 J1M       0.125500
     31 H2          -6.8190     0.0500     1.7520 h1         1 J1M       0.042700
     32 H3          -6.7110     1.6630     1.0310 h1         1 J1M       0.042700
     33 H4         -11.2390    -1.3680     1.0090 ha         1 J1M       0.115500
     34 H5         -12.2860     0.4570    -0.2940 ha         1 J1M       0.114000
     35 H6          -8.5120     2.4620    -0.5090 ha         1 J1M       0.114500
     36 H7          -4.6610     0.8320     1.7260 ha         1 J1M       0.125500
     37 H8          -2.2630     0.5770     1.6100 ha         1 J1M       0.117500
     38 H9           6.9970     4.0940    -0.7640 ho         1 J1M       0.443000
     39 H10          7.2240    -0.2830    -1.8780 hc         1 J1M       0.059700
     40 H11          5.7550    -1.2210    -2.0370 hc         1 J1M       0.059700
     41 H12          5.7560     0.4530    -2.5470 hc         1 J1M       0.059700
     42 H13          3.8500     0.6060     0.6860 hc         1 J1M       0.073200
     43 H14          3.8090     1.0280    -1.0100 hc         1 J1M       0.073200
     44 H15          3.6270    -1.3690    -1.6490 h1         1 J1M       0.075700
     45 H16          3.6930    -1.8550     0.0300 h1         1 J1M       0.075700
     46 H17          1.8350    -0.4770    -2.5660 h4         1 J1M       0.197000
     47 H18         -0.5870    -0.1160    -2.5540 ha         1 J1M       0.202000
     48 H19         -0.5390    -0.8960     1.6840 ha         1 J1M       0.211000
     49 H20         -2.6030    -1.1320    -2.3070 ha         1 J1M       0.117500
     50 H21         -8.8330    -1.2800     1.5440 ha         1 J1M       0.114500
     51 H22        -10.9140     2.3730    -1.0500 ha         1 J1M       0.115500
     52 H23          6.0180    -1.5670     2.9880 h1         1 J1M       0.121367
     53 H24          5.6540     0.1610     2.7210 h1         1 J1M       0.121367
     54 H25          4.4970    -1.0950     2.1880 h1         1 J1M       0.121367
     55 H26          7.3100     1.8200    -1.6990 hn         1 J1M       0.350500
     56 C31          5.5470    -0.8430     2.3240 c3         1 J1M      -0.314100
     57 O32          6.1840    -2.3330     0.2620 o          1 J1M      -0.512500
     58 O29          7.5860     3.3830    -0.4770 oh         1 J1M      -0.407100
     59 O33          7.8070    -0.5630     0.9710 o          1 J1M      -0.512500
@<TRIPOS>BOND
     1     1    11 ar  
     2     1    19 1   
     3     1    22 ar  
     4     2     3 ar  
     5     2    22 ar  
     6     2    30 1   
     7     3     4 1   
     8     3    10 ar  
     9     4     5 1   
    10     5     6 1   
    11     5    31 1   
    12     5    32 1   
    13     6     9 ar  
    14     6    23 ar  
    15     7     8 ar  
    16     7    23 ar  
    17     7    33 1   
    18     8    24 ar  
    19     8    34 1   
    20     9    24 ar  
    21     9    35 1   
    22    10    11 ar  
    23    10    36 1   
    24    11    37 1   
    25    12    14 1   
    26    12    26 1   
    27    12    28 2   
    28    13    14 1   
    29    13    39 1   
    30    13    40 1   
    31    13    41 1   
    32    14    15 1   
    33    14    29 1   
    34    15    16 1   
    35    15    42 1   
    36    15    43 1   
    37    16    25 1   
    38    16    44 1   
    39    16    45 1   
    40    17    18 2   
    41    17    25 1   
    42    17    46 1   
    43    18    19 1   
    44    18    47 1   
    45    19    20 2   
    46    20    21 1   
    47    20    48 1   
    48    21    25 1   
    49    21    27 2   
    50    22    49 1   
    51    23    50 1   
    52    24    51 1   
    53    26    55 1   
    54    26    58 1   
    55    29    56 1   
    56    29    57 2   
    57    29    59 2   
    58    38    58 1   
    59    52    56 1   
    60    53    56 1   
    61    54    56 1   
@<TRIPOS>SUBSTRUCTURE
     1 J1M         1 TEMP              0 ****  ****    0 ROOT
