@<TRIPOS>MOLECULE
J1M
   59    61     1     0     0
SMALL
No Charge or Current Charge


@<TRIPOS>ATOM
      1 C12         -2.3110    -0.4180    -0.3010 ca         1 J1M      -0.110800
      2 C14         -4.4740    -0.2120    -1.4470 ca         1 J1M      -0.179500
      3 C15         -5.1350    -0.0420    -0.2260 ca         1 J1M       0.159100
      4 O16         -6.5030     0.1360    -0.2500 os         1 J1M      -0.339100
      5 C17         -7.2720     0.3170     0.9510 c3         1 J1M       0.210900
      6 C18         -8.7370     0.4820     0.5660 ca         1 J1M      -0.099300
      7 C20        -10.9290    -0.4920     0.1120 ca         1 J1M      -0.114500
      8 C21        -11.4490     0.7880    -0.1460 ca         1 J1M      -0.096000
      9 C23         -9.2630     1.7630     0.3040 ca         1 J1M      -0.083500
     10 C24         -4.3880    -0.0590     0.9680 ca         1 J1M      -0.179500
     11 C25         -2.9950    -0.2470     0.9280 ca         1 J1M      -0.049000
     12 C26          6.3510     1.6510    -0.2100 c          1 J1M       0.624100
     13 C01          6.2750    -0.4070    -1.7850 c3         1 J1M      -0.093100
     14 C02          5.8190     0.2120    -0.4140 c3         1 J1M      -0.315000
     15 C03          4.2430     0.2550    -0.3530 c3         1 J1M      -0.076400
     16 C04          3.4860    -1.0910    -0.4930 c3         1 J1M       0.080000
     17 C06          1.3030    -0.5650    -1.5660 cc         1 J1M      -0.037400
     18 C07         -0.0670    -0.4080    -1.5570 cd         1 J1M      -0.286000
     19 C08         -0.8340    -0.6170    -0.3500 cd         1 J1M       0.090800
     20 C09         -0.0920    -0.9360     0.7740 cc         1 J1M      -0.322200
     21 C10          1.3620    -1.1140     0.8070 c          1 J1M       0.556200
     22 C13         -3.0810    -0.3970    -1.4890 ca         1 J1M      -0.049000
     23 C19         -9.5770    -0.6450     0.4670 ca         1 J1M      -0.083500
     24 C22        -10.6150     1.9150    -0.0500 ca         1 J1M      -0.114500
     25 N05          2.0150    -0.9170    -0.4240 n          1 J1M      -0.272000
     26 N28          7.2300     2.1440    -1.1700 ns         1 J1M      -0.364400
     27 O11          1.9530    -1.4070     1.8380 o          1 J1M      -0.577000
     28 O27          5.9680     2.3600     0.7100 o          1 J1M      -0.578100
     29 S30          6.5680    -0.7670     0.9400 s6         1 J1M       1.058000
     30 H1          -5.0450    -0.2060    -2.3720 ha         1 J1M       0.125500
     31 H2          -7.1640    -0.5510     1.6150 h1         1 J1M       0.042700
     32 H3          -6.9350     1.2090     1.4960 h1         1 J1M       0.042700
     33 H4         -11.5730    -1.3660     0.0370 ha         1 J1M       0.115500
     34 H5         -12.4950     0.9050    -0.4210 ha         1 J1M       0.114000
     35 H6          -8.6240     2.6410     0.3740 ha         1 J1M       0.114500
     36 H7          -4.8660     0.0750     1.9340 ha         1 J1M       0.125500
     37 H8          -2.4600    -0.2280     1.8730 ha         1 J1M       0.117500
     38 H9           7.7880     3.8930    -1.7810 ho         1 J1M       0.443000
     39 H10          7.3690    -0.4500    -1.8700 hc         1 J1M       0.059700
     40 H11          5.9170    -1.4360    -1.9040 hc         1 J1M       0.059700
     41 H12          5.8850     0.1730    -2.6320 hc         1 J1M       0.059700
     42 H13          3.9160     0.7280     0.5810 hc         1 J1M       0.073200
     43 H14          3.8870     0.9220    -1.1500 hc         1 J1M       0.073200
     44 H15          3.7300    -1.5550    -1.4570 h1         1 J1M       0.075700
     45 H16          3.8050    -1.7940     0.2860 h1         1 J1M       0.075700
     46 H17          1.9390    -0.4240    -2.4350 h4         1 J1M       0.197000
     47 H18         -0.5470    -0.1060    -2.4810 ha         1 J1M       0.202000
     48 H19         -0.5500    -1.1170     1.7350 ha         1 J1M       0.211000
     49 H20         -2.6220    -0.5510    -2.4600 ha         1 J1M       0.117500
     50 H21         -9.1810    -1.6390     0.6620 ha         1 J1M       0.114500
     51 H22        -11.0160     2.9060    -0.2510 ha         1 J1M       0.115500
     52 H23          6.1930    -0.8940     3.2650 h1         1 J1M       0.121367
     53 H24          5.8710     0.7580     2.6300 h1         1 J1M       0.121367
     54 H25          4.6730    -0.5710     2.3590 h1         1 J1M       0.121367
     55 H26          7.6280     1.5070    -1.8570 hn         1 J1M       0.350500
     56 C31          5.7310    -0.3130     2.4610 c3         1 J1M      -0.314100
     57 O32          6.2670    -2.1830     0.6970 o          1 J1M      -0.512500
     58 O29          7.9540     3.3810    -0.9550 oh         1 J1M      -0.407100
     59 O33          7.9710    -0.3590     1.0690 o          1 J1M      -0.512500
@<TRIPOS>BOND
     1     1    11 ar  
     2     1    19 1   
     3     1    22 ar  
     4     2     3 ar  
     5     2    22 ar  
     6     2    30 1   
     7     3     4 1   
     8     3    10 ar  
     9     4     5 1   
    10     5     6 1   
    11     5    31 1   
    12     5    32 1   
    13     6     9 ar  
    14     6    23 ar  
    15     7     8 ar  
    16     7    23 ar  
    17     7    33 1   
    18     8    24 ar  
    19     8    34 1   
    20     9    24 ar  
    21     9    35 1   
    22    10    11 ar  
    23    10    36 1   
    24    11    37 1   
    25    12    14 1   
    26    12    26 1   
    27    12    28 2   
    28    13    14 1   
    29    13    39 1   
    30    13    40 1   
    31    13    41 1   
    32    14    15 1   
    33    14    29 1   
    34    15    16 1   
    35    15    42 1   
    36    15    43 1   
    37    16    25 1   
    38    16    44 1   
    39    16    45 1   
    40    17    18 2   
    41    17    25 1   
    42    17    46 1   
    43    18    19 1   
    44    18    47 1   
    45    19    20 2   
    46    20    21 1   
    47    20    48 1   
    48    21    25 1   
    49    21    27 2   
    50    22    49 1   
    51    23    50 1   
    52    24    51 1   
    53    26    55 1   
    54    26    58 1   
    55    29    56 1   
    56    29    57 2   
    57    29    59 2   
    58    38    58 1   
    59    52    56 1   
    60    53    56 1   
    61    54    56 1   
@<TRIPOS>SUBSTRUCTURE
     1 J1M         1 TEMP              0 ****  ****    0 ROOT
