@<TRIPOS>MOLECULE
J1N
   40    42     1     0     0
SMALL
No Charge or Current Charge


@<TRIPOS>ATOM
      1 N01          0.5050    -2.8580     0.0170 nb         1 J1N      -0.304000
      2 C02         -0.5900    -3.6480     0.0480 ca         1 J1N       0.174900
      3 N03         -1.8740    -3.2370     0.0420 nb         1 J1N      -0.246000
      4 C04          0.2990    -1.5250     0.0140 ca         1 J1N       0.430900
      5 S05         -3.6620    -1.1630    -0.0500 ss         1 J1N      -0.186900
      6 C06         -2.9010     0.4500    -0.1020 cc         1 J1N      -0.095600
      7 C07         -1.5190     0.3730     0.0540 cd         1 J1N       0.041600
      8 C08         -1.0110    -1.0010     0.0640 ca         1 J1N      -0.249800
      9 C09         -2.0540    -1.9050     0.0430 ca         1 J1N       0.186300
     10 C10         -3.7970     1.6670    -0.1340 c3         1 J1N      -0.003200
     11 C11         -4.4600     1.8950    -1.5060 c3         1 J1N      -0.086100
     12 N12          1.4280    -0.7350    -0.1380 nu         1 J1N      -0.839100
     13 C13          2.8760    -1.1370    -0.0150 c3         1 J1N       0.067500
     14 C14          3.2720    -1.4500     1.4570 c3         1 J1N       0.164600
     15 O15          3.1160    -0.3030     2.3100 oh         1 J1N      -0.648000
     16 C16          3.8830    -0.1010    -0.6410 c          1 J1N       0.728000
     17 O17          3.4800     1.0260    -0.9150 o          1 J1N      -0.715000
     18 O18          5.0010    -0.4970    -0.9490 o          1 J1N      -0.715000
     19 C19         -0.6320     1.5560     0.0990 ca         1 J1N      -0.049800
     20 C20          0.3420     1.6730     1.1120 ca         1 J1N      -0.087500
     21 C21          1.1700     2.8050     1.1860 ca         1 J1N      -0.100500
     22 C22          1.0260     3.8430     0.2520 ca         1 J1N      -0.093000
     23 C23          0.0490     3.7470    -0.7520 ca         1 J1N      -0.100500
     24 C24         -0.7780     2.6130    -0.8240 ca         1 J1N      -0.087500
     25 H1          -0.4190    -4.7230     0.0520 h5         1 J1N       0.026100
     26 H2          -4.5890     1.5470     0.6160 hc         1 J1N       0.046700
     27 H3          -3.2500     2.5680     0.1610 hc         1 J1N       0.046700
     28 H4          -5.0820     2.7970    -1.4850 hc         1 J1N       0.031033
     29 H5          -3.7050     2.0150    -2.2920 hc         1 J1N       0.031033
     30 H6          -5.0990     1.0450    -1.7730 hc         1 J1N       0.031033
     31 H7           1.2500     0.2700    -0.1750 hn         1 J1N       0.543000
     32 H8           3.0300    -2.0580    -0.5930 h1         1 J1N       0.067700
     33 H9           2.6500    -2.2760     1.8260 h1         1 J1N       0.019200
     34 H10          4.3140    -1.7950     1.4800 h1         1 J1N       0.019200
     35 H11          3.3240    -0.5970     3.2230 ho         1 J1N       0.412000
     36 H13          0.4440     0.8900     1.8620 ha         1 J1N       0.113500
     37 H14          1.9190     2.8800     1.9710 ha         1 J1N       0.106000
     38 H15          1.6670     4.7200     0.3080 ha         1 J1N       0.103000
     39 H16         -0.0650     4.5500    -1.4770 ha         1 J1N       0.106000
     40 H17         -1.5170     2.5480    -1.6170 ha         1 J1N       0.113500
@<TRIPOS>BOND
     1     1     2 ar  
     2     1     4 ar  
     3     2     3 ar  
     4     2    25 1   
     5     3     9 ar  
     6     4     8 ar  
     7     4    12 1   
     8     5     6 1   
     9     5     9 1   
    10     6     7 2   
    11     6    10 1   
    12     7     8 1   
    13     7    19 1   
    14     8     9 ar  
    15    10    11 1   
    16    10    26 1   
    17    10    27 1   
    18    11    28 1   
    19    11    29 1   
    20    11    30 1   
    21    12    13 1   
    22    12    31 1   
    23    13    14 1   
    24    13    16 1   
    25    13    32 1   
    26    14    15 1   
    27    14    33 1   
    28    14    34 1   
    29    15    35 1   
    30    16    17 1   
    31    16    18 1   
    32    19    20 ar  
    33    19    24 ar  
    34    20    21 ar  
    35    20    36 1   
    36    21    22 ar  
    37    21    37 1   
    38    22    23 ar  
    39    22    38 1   
    40    23    24 ar  
    41    23    39 1   
    42    24    40 1   
@<TRIPOS>SUBSTRUCTURE
     1 J1N         1 TEMP              0 ****  ****    0 ROOT
