@<TRIPOS>MOLECULE
J1N
   40    42     1     0     0
SMALL
abcg2


@<TRIPOS>ATOM
      1 N01          0.4970    -2.8080     0.1440 nb         1 J1N      -0.304000
      2 C02         -0.5760    -3.5860     0.1390 ca         1 J1N       0.174900
      3 N03         -1.8410    -3.2200     0.0700 nb         1 J1N      -0.246000
      4 C04          0.3360    -1.4800     0.0800 ca         1 J1N       0.430900
      5 S05         -3.5560    -1.1480    -0.0700 ss         1 J1N      -0.186900
      6 C06         -2.8510     0.4430    -0.0490 cc         1 J1N      -0.095600
      7 C07         -1.4930     0.4040     0.0330 cd         1 J1N       0.041600
      8 C08         -0.9880    -0.9450     0.0700 ca         1 J1N      -0.249800
      9 C09         -2.0020    -1.8950     0.0370 ca         1 J1N       0.186300
     10 C10         -3.7520     1.6320    -0.1160 c3         1 J1N      -0.003200
     11 C11         -4.3300     1.8640    -1.5120 c3         1 J1N      -0.086100
     12 N12          1.4190    -0.7150     0.0070 nu         1 J1N      -0.839100
     13 C13          2.7770    -1.2000    -0.0600 c3         1 J1N       0.067500
     14 C14          3.3130    -1.5950     1.3060 c3         1 J1N       0.164600
     15 O15          3.3560    -0.4480     2.1240 oh         1 J1N      -0.648000
     16 C16          3.6700    -0.1140    -0.7130 c          1 J1N       0.728000
     17 O17          3.1150     0.9460    -1.0550 o          1 J1N      -0.715000
     18 O18          4.8680    -0.4200    -0.8430 o          1 J1N      -0.715000
     19 C19         -0.6590     1.6210     0.1280 ca         1 J1N      -0.049800
     20 C20          0.0610     1.8850     1.2930 ca         1 J1N      -0.087500
     21 C21          0.8420     3.0260     1.3950 ca         1 J1N      -0.100500
     22 C22          0.9100     3.9210     0.3350 ca         1 J1N      -0.093000
     23 C23          0.1980     3.6660    -0.8280 ca         1 J1N      -0.100500
     24 C24         -0.5810     2.5210    -0.9320 ca         1 J1N      -0.087500
     25 H1          -0.3860    -4.6530     0.1910 h5         1 J1N       0.026100
     26 H2          -4.5700     1.5140     0.6000 hc         1 J1N       0.046700
     27 H3          -3.1920     2.5120     0.2040 hc         1 J1N       0.046700
     28 H4          -4.9770     2.7410    -1.5160 hc         1 J1N       0.031033
     29 H5          -3.5380     2.0250    -2.2440 hc         1 J1N       0.031033
     30 H6          -4.9230     1.0120    -1.8460 hc         1 J1N       0.031033
     31 H7           1.3370     0.2820    -0.1340 hn         1 J1N       0.543000
     32 H8           2.8110    -2.0940    -0.6910 h1         1 J1N       0.067700
     33 H9           2.6680    -2.3720     1.7350 h1         1 J1N       0.019200
     34 H10          4.3060    -2.0390     1.1690 h1         1 J1N       0.019200
     35 H11          3.7160    -0.7070     2.9760 ho         1 J1N       0.412000
     36 H13          0.0130     1.1890     2.1220 ha         1 J1N       0.113500
     37 H14          1.3960     3.2180     2.3040 ha         1 J1N       0.106000
     38 H15          1.5190     4.8120     0.4140 ha         1 J1N       0.103000
     39 H16          0.2490     4.3560    -1.6600 ha         1 J1N       0.106000
     40 H17         -1.1250     2.3200    -1.8470 ha         1 J1N       0.113500
@<TRIPOS>BOND
     1     1     2 ar  
     2     1     4 ar  
     3     2     3 ar  
     4     2    25 1   
     5     3     9 ar  
     6     4     8 ar  
     7     4    12 1   
     8     5     6 1   
     9     5     9 1   
    10     6     7 2   
    11     6    10 1   
    12     7     8 1   
    13     7    19 1   
    14     8     9 ar  
    15    10    11 1   
    16    10    26 1   
    17    10    27 1   
    18    11    28 1   
    19    11    29 1   
    20    11    30 1   
    21    12    13 1   
    22    12    31 1   
    23    13    14 1   
    24    13    16 1   
    25    13    32 1   
    26    14    15 1   
    27    14    33 1   
    28    14    34 1   
    29    15    35 1   
    30    16    17 1   
    31    16    18 1   
    32    19    20 ar  
    33    19    24 ar  
    34    20    21 ar  
    35    20    36 1   
    36    21    22 ar  
    37    21    37 1   
    38    22    23 ar  
    39    22    38 1   
    40    23    24 ar  
    41    23    39 1   
    42    24    40 1   
@<TRIPOS>SUBSTRUCTURE
     1 J1N         1 TEMP              0 ****  ****    0 ROOT
