@<TRIPOS>MOLECULE
J1Q
   76    79     1     0     0
SMALL
abcg2


@<TRIPOS>ATOM
      1 C30         -2.4130    -2.3650    16.6730 c3         1 J1Q      -0.087100
      2 C29         -2.3270    -1.5150    17.9380 c3         1 J1Q      -0.072900
      3 C28         -0.9290    -1.5140    18.5520 c3         1 J1Q      -0.100400
      4 C27         -0.8580    -0.6550    19.8080 c3         1 J1Q       0.106500
      5 N5           0.4850    -0.5760    20.3880 n          1 J1Q      -0.394800
      6 C23          0.9130    -1.7030    21.2150 c3         1 J1Q       0.106500
      7 C24          0.4780    -1.5810    22.6730 c3         1 J1Q      -0.100400
      8 C25          0.8960    -2.7980    23.4950 c3         1 J1Q      -0.072900
      9 C26          0.4690    -2.7010    24.9570 c3         1 J1Q      -0.087100
     10 C22          1.2800     0.5060    20.3030 c          1 J1Q       0.531600
     11 O2           2.3290     0.6240    20.9540 o          1 J1Q      -0.606100
     12 C18          0.8910     1.6000    19.3660 cc         1 J1Q       0.220500
     13 N4           0.6940     1.3650    18.0740 nd         1 J1Q      -0.499800
     14 C19          0.7780     2.9750    19.6590 cc         1 J1Q      -0.189000
     15 C20          0.4810     3.5850    18.4560 cd         1 J1Q      -0.100300
     16 C21          0.2730     5.0180    18.1150 c3         1 J1Q      -0.031800
     17 N3           0.4390     2.5820    17.5310 na         1 J1Q       0.199000
     18 C13          0.3360     2.6910    16.1180 ca         1 J1Q       0.044800
     19 C14         -0.8250     3.1780    15.5340 ca         1 J1Q      -0.109000
     20 C15         -0.9170     3.2560    14.1490 ca         1 J1Q      -0.093000
     21 C16          0.1420     2.8260    13.3560 ca         1 J1Q      -0.108000
     22 C17          1.2990     2.3290    13.9470 ca         1 J1Q      -0.083000
     23 C12          1.4110     2.2690    15.3330 ca         1 J1Q      -0.118600
     24 C11          2.7120     1.9010    15.9910 c          1 J1Q       0.621700
     25 O1           3.3540     2.7940    16.5520 o          1 J1Q      -0.585100
     26 N1           3.1340     0.6240    15.9040 n          1 J1Q      -0.394800
     27 C7           2.3080    -0.4670    15.3980 c6         1 J1Q       0.153300
     28 C6           2.2680    -1.6530    16.3340 ca         1 J1Q      -0.097300
     29 C4           1.4060    -2.7080    16.0350 ca         1 J1Q      -0.107000
     30 C3           1.3290    -3.8190    16.8600 ca         1 J1Q      -0.114000
     31 C2           2.1220    -3.8840    18.0030 ca         1 J1Q      -0.109000
     32 C1           2.9900    -2.8420    18.2960 ca         1 J1Q      -0.107000
     33 C5           3.0790    -1.7210    17.4680 ca         1 J1Q      -0.053300
     34 C10          4.0380    -0.6040    17.7900 c6         1 J1Q      -0.053100
     35 C8           4.3900     0.2280    16.5580 c6         1 J1Q       0.105700
     36 C9           5.3110    -0.4960    15.5790 c3         1 J1Q       0.140800
     37 N2           5.6450     0.3740    14.4470 n8         1 J1Q      -0.995200
     38 H1          -3.4210    -2.3520    16.2530 hc         1 J1Q       0.031700
     39 H2          -1.7240    -1.9960    15.9090 hc         1 J1Q       0.031700
     40 H3          -2.1470    -3.4040    16.8800 hc         1 J1Q       0.031700
     41 H4          -2.6150    -0.4840    17.7060 hc         1 J1Q       0.035700
     42 H5          -3.0510    -1.8780    18.6760 hc         1 J1Q       0.035700
     43 H6          -0.6290    -2.5390    18.7850 hc         1 J1Q       0.052200
     44 H7          -0.2090    -1.1350    17.8270 hc         1 J1Q       0.052200
     45 H8          -1.2020     0.3530    19.5890 h1         1 J1Q       0.051450
     46 H9          -1.5210    -1.0590    20.5770 h1         1 J1Q       0.051450
     47 H10          0.4960    -2.6090    20.7740 h1         1 J1Q       0.051450
     48 H11          1.9970    -1.7750    21.1530 h1         1 J1Q       0.051450
     49 H12          0.9150    -0.6750    23.1010 hc         1 J1Q       0.052200
     50 H13         -0.6100    -1.4640    22.7210 hc         1 J1Q       0.052200
     51 H14          0.4650    -3.6990    23.0460 hc         1 J1Q       0.035700
     52 H15          1.9830    -2.9150    23.4360 hc         1 J1Q       0.035700
     53 H16          0.7810    -3.5830    25.5210 hc         1 J1Q       0.031700
     54 H17          0.9110    -1.8240    25.4360 hc         1 J1Q       0.031700
     55 H18         -0.6170    -2.6160    25.0420 hc         1 J1Q       0.031700
     56 H19          0.8950     3.4580    20.6140 ha         1 J1Q       0.155000
     57 H20         -0.7680     5.2220    17.8540 hc         1 J1Q       0.056033
     58 H21          0.5380     5.6370    18.9700 hc         1 J1Q       0.056033
     59 H22          0.8910     5.3110    17.2650 hc         1 J1Q       0.056033
     60 H23         -1.6510     3.4800    16.1630 ha         1 J1Q       0.129000
     61 H24         -1.8200     3.6370    13.6920 ha         1 J1Q       0.122000
     62 H25          0.0690     2.8770    12.2780 ha         1 J1Q       0.121000
     63 H26          2.1250     1.9950    13.3320 ha         1 J1Q       0.125000
     64 H27          2.6780    -0.7880    14.4180 h1         1 J1Q       0.053700
     65 H28          1.2970    -0.0990    15.2470 h1         1 J1Q       0.053700
     66 H29          0.7810    -2.6470    15.1510 ha         1 J1Q       0.108000
     67 H30          0.6450    -4.6250    16.6220 ha         1 J1Q       0.112000
     68 H31          2.0640    -4.7420    18.6600 ha         1 J1Q       0.112000
     69 H32          3.6170    -2.8930    19.1790 ha         1 J1Q       0.115000
     70 H33          4.9480    -1.0110    18.2360 hc         1 J1Q       0.073700
     71 H34          3.5920     0.0600    18.5350 hc         1 J1Q       0.073700
     72 H35          4.8770     1.1490    16.8640 h1         1 J1Q       0.107700
     73 H36          4.8630    -1.4500    15.2740 h1         1 J1Q       0.037200
     74 H37          6.2310    -0.7370    16.1150 h1         1 J1Q       0.037200
     75 H38          6.2700    -0.1130    13.8140 hn         1 J1Q       0.392500
     76 H39          4.8060     0.5760    13.9120 hn         1 J1Q       0.392500
@<TRIPOS>BOND
     1     1     2 1   
     2     1    38 1   
     3     1    39 1   
     4     1    40 1   
     5     2     3 1   
     6     2    41 1   
     7     2    42 1   
     8     3     4 1   
     9     3    43 1   
    10     3    44 1   
    11     4     5 1   
    12     4    45 1   
    13     4    46 1   
    14     5     6 1   
    15     5    10 1   
    16     6     7 1   
    17     6    47 1   
    18     6    48 1   
    19     7     8 1   
    20     7    49 1   
    21     7    50 1   
    22     8     9 1   
    23     8    51 1   
    24     8    52 1   
    25     9    53 1   
    26     9    54 1   
    27     9    55 1   
    28    10    11 2   
    29    10    12 1   
    30    12    13 2   
    31    12    14 1   
    32    13    17 1   
    33    14    15 2   
    34    14    56 1   
    35    15    16 1   
    36    15    17 1   
    37    16    57 1   
    38    16    58 1   
    39    16    59 1   
    40    17    18 1   
    41    18    19 ar  
    42    18    23 ar  
    43    19    20 ar  
    44    19    60 1   
    45    20    21 ar  
    46    20    61 1   
    47    21    22 ar  
    48    21    62 1   
    49    22    23 ar  
    50    22    63 1   
    51    23    24 1   
    52    24    25 2   
    53    24    26 1   
    54    26    27 1   
    55    26    35 1   
    56    27    28 1   
    57    27    64 1   
    58    27    65 1   
    59    28    29 ar  
    60    28    33 ar  
    61    29    30 ar  
    62    29    66 1   
    63    30    31 ar  
    64    30    67 1   
    65    31    32 ar  
    66    31    68 1   
    67    32    33 ar  
    68    32    69 1   
    69    33    34 1   
    70    34    35 1   
    71    34    70 1   
    72    34    71 1   
    73    35    36 1   
    74    35    72 1   
    75    36    37 1   
    76    36    73 1   
    77    36    74 1   
    78    37    75 1   
    79    37    76 1   
@<TRIPOS>SUBSTRUCTURE
     1 J1Q         1 TEMP              0 ****  ****    0 ROOT
