@<TRIPOS>MOLECULE
J1Q
   76    79     1     0     0
SMALL
No Charge or Current Charge


@<TRIPOS>ATOM
      1 C30         -2.0300    -2.6850    16.6870 c3         1 J1Q      -0.087100
      2 C29         -2.1160    -1.8610    17.9830 c3         1 J1Q      -0.072900
      3 C28         -0.7490    -1.6210    18.6630 c3         1 J1Q      -0.100400
      4 C27         -0.8930    -0.7600    19.9380 c3         1 J1Q       0.106500
      5 N5           0.3810    -0.4330    20.6290 n          1 J1Q      -0.394800
      6 C23          0.9400    -1.4800    21.5180 c3         1 J1Q       0.106500
      7 C24          0.2120    -1.6090    22.8750 c3         1 J1Q      -0.100400
      8 C25          0.8420    -2.6790    23.7920 c3         1 J1Q      -0.072900
      9 C26          0.1220    -2.8120    25.1470 c3         1 J1Q      -0.087100
     10 C22          0.9280     0.8870    20.6580 c          1 J1Q       0.531600
     11 O2           1.6250     1.2310    21.6110 o          1 J1Q      -0.606100
     12 C18          0.6510     1.8230    19.4980 cc         1 J1Q       0.220500
     13 N4           0.1810     1.5000    18.2990 nd         1 J1Q      -0.499800
     14 C19          1.0080     3.1930    19.5770 cc         1 J1Q      -0.189000
     15 C20          0.7350     3.7740    18.3740 cd         1 J1Q      -0.100300
     16 C21          0.9540     5.1870    17.8920 c3         1 J1Q      -0.031800
     17 N3           0.2180     2.7070    17.6360 na         1 J1Q       0.199000
     18 C13          0.1820     2.8460    16.2470 ca         1 J1Q       0.044800
     19 C14         -0.9970     3.2950    15.6220 ca         1 J1Q      -0.109000
     20 C15         -1.0810     3.3430    14.2200 ca         1 J1Q      -0.093000
     21 C16          0.0080     2.9290    13.4360 ca         1 J1Q      -0.108000
     22 C17          1.1860     2.4740    14.0520 ca         1 J1Q      -0.083000
     23 C12          1.2870     2.4380    15.4580 ca         1 J1Q      -0.118600
     24 C11          2.5670     1.9820    16.1140 c          1 J1Q       0.621700
     25 O1           3.2060     2.7460    16.8280 o          1 J1Q      -0.585100
     26 N1           3.0660     0.7000    15.7960 n          1 J1Q      -0.394800
     27 C7           2.1800    -0.3860    15.2830 c6         1 J1Q       0.153300
     28 C6           2.2090    -1.6770    16.1190 ca         1 J1Q      -0.097300
     29 C4           1.3700    -2.7490    15.7600 ca         1 J1Q      -0.107000
     30 C3           1.3590    -3.9300    16.5210 ca         1 J1Q      -0.114000
     31 C2           2.1860    -4.0460    17.6500 ca         1 J1Q      -0.109000
     32 C1           3.0380    -2.9890    18.0060 ca         1 J1Q      -0.107000
     33 C5           3.0620    -1.8090    17.2380 ca         1 J1Q      -0.053300
     34 C10          4.0210    -0.6790    17.6070 c6         1 J1Q      -0.053100
     35 C8           4.3480     0.2150    16.3870 c6         1 J1Q       0.105700
     36 C9           5.2700    -0.5270    15.3600 c3         1 J1Q       0.140800
     37 N2           5.6820     0.3040    14.2030 n8         1 J1Q      -0.995200
     38 H1          -3.0320    -2.8520    16.2740 hc         1 J1Q       0.031700
     39 H2          -1.4360    -2.1560    15.9330 hc         1 J1Q       0.031700
     40 H3          -1.5720    -3.6630    16.8770 hc         1 J1Q       0.031700
     41 H4          -2.5800    -0.8930    17.7540 hc         1 J1Q       0.035700
     42 H5          -2.7840    -2.3750    18.6860 hc         1 J1Q       0.035700
     43 H6          -0.2980    -2.5860    18.9240 hc         1 J1Q       0.052200
     44 H7          -0.0690    -1.1340    17.9570 hc         1 J1Q       0.052200
     45 H8          -1.4370     0.1630    19.7040 h1         1 J1Q       0.051450
     46 H9          -1.5360    -1.3070    20.6390 h1         1 J1Q       0.051450
     47 H10          0.8910    -2.4450    20.9970 h1         1 J1Q       0.051450
     48 H11          2.0040    -1.2740    21.6960 h1         1 J1Q       0.051450
     49 H12          0.2330    -0.6380    23.3850 hc         1 J1Q       0.052200
     50 H13         -0.8420    -1.8600    22.7060 hc         1 J1Q       0.052200
     51 H14          0.8260    -3.6500    23.2820 hc         1 J1Q       0.035700
     52 H15          1.8960    -2.4300    23.9710 hc         1 J1Q       0.035700
     53 H16          0.6040    -3.5810    25.7620 hc         1 J1Q       0.031700
     54 H17          0.1520    -1.8640    25.6970 hc         1 J1Q       0.031700
     55 H18         -0.9270    -3.0970    25.0030 hc         1 J1Q       0.031700
     56 H19          1.4480     3.6720    20.4460 ha         1 J1Q       0.155000
     57 H20          0.0280     5.6150    17.4910 hc         1 J1Q       0.056033
     58 H21          1.2950     5.8340    18.7090 hc         1 J1Q       0.056033
     59 H22          1.7120     5.2220    17.1010 hc         1 J1Q       0.056033
     60 H23         -1.8520     3.5910    16.2250 ha         1 J1Q       0.129000
     61 H24         -1.9950     3.6910    13.7420 ha         1 J1Q       0.122000
     62 H25         -0.0600     2.9610    12.3510 ha         1 J1Q       0.121000
     63 H26          2.0290     2.1640    13.4370 ha         1 J1Q       0.125000
     64 H27          2.4730    -0.6230    14.2510 h1         1 J1Q       0.053700
     65 H28          1.1370    -0.0440    15.2470 h1         1 J1Q       0.053700
     66 H29          0.7230    -2.6650    14.8900 ha         1 J1Q       0.108000
     67 H30          0.7050    -4.7520    16.2390 ha         1 J1Q       0.112000
     68 H31          2.1720    -4.9580    18.2430 ha         1 J1Q       0.112000
     69 H32          3.6860    -3.0890    18.8740 ha         1 J1Q       0.115000
     70 H33          4.9480    -1.0840    18.0340 hc         1 J1Q       0.073700
     71 H34          3.5610    -0.0650    18.3940 hc         1 J1Q       0.073700
     72 H35          4.9370     1.0690    16.7500 h1         1 J1Q       0.107700
     73 H36          4.7530    -1.4190    14.9810 h1         1 J1Q       0.037200
     74 H37          6.1780    -0.8630    15.8810 h1         1 J1Q       0.037200
     75 H38          6.1890    -0.2840    13.5290 hn         1 J1Q       0.392500
     76 H39          4.8410     0.5930    13.6910 hn         1 J1Q       0.392500
@<TRIPOS>BOND
     1     1     2 1   
     2     1    38 1   
     3     1    39 1   
     4     1    40 1   
     5     2     3 1   
     6     2    41 1   
     7     2    42 1   
     8     3     4 1   
     9     3    43 1   
    10     3    44 1   
    11     4     5 1   
    12     4    45 1   
    13     4    46 1   
    14     5     6 1   
    15     5    10 1   
    16     6     7 1   
    17     6    47 1   
    18     6    48 1   
    19     7     8 1   
    20     7    49 1   
    21     7    50 1   
    22     8     9 1   
    23     8    51 1   
    24     8    52 1   
    25     9    53 1   
    26     9    54 1   
    27     9    55 1   
    28    10    11 2   
    29    10    12 1   
    30    12    13 2   
    31    12    14 1   
    32    13    17 1   
    33    14    15 2   
    34    14    56 1   
    35    15    16 1   
    36    15    17 1   
    37    16    57 1   
    38    16    58 1   
    39    16    59 1   
    40    17    18 1   
    41    18    19 ar  
    42    18    23 ar  
    43    19    20 ar  
    44    19    60 1   
    45    20    21 ar  
    46    20    61 1   
    47    21    22 ar  
    48    21    62 1   
    49    22    23 ar  
    50    22    63 1   
    51    23    24 1   
    52    24    25 2   
    53    24    26 1   
    54    26    27 1   
    55    26    35 1   
    56    27    28 1   
    57    27    64 1   
    58    27    65 1   
    59    28    29 ar  
    60    28    33 ar  
    61    29    30 ar  
    62    29    66 1   
    63    30    31 ar  
    64    30    67 1   
    65    31    32 ar  
    66    31    68 1   
    67    32    33 ar  
    68    32    69 1   
    69    33    34 1   
    70    34    35 1   
    71    34    70 1   
    72    34    71 1   
    73    35    36 1   
    74    35    72 1   
    75    36    37 1   
    76    36    73 1   
    77    36    74 1   
    78    37    75 1   
    79    37    76 1   
@<TRIPOS>SUBSTRUCTURE
     1 J1Q         1 TEMP              0 ****  ****    0 ROOT
