@<TRIPOS>MOLECULE
J1T
  118   125     1     0     0
SMALL
No Charge or Current Charge


@<TRIPOS>ATOM
      1 C63         -9.0520     3.4060    -1.3200 c6         1 J1T       0.124800
      2 C64        -10.2980     4.2950    -1.0330 c6         1 J1T       0.153100
      3 O65        -11.3790     3.9490    -1.9310 os         1 J1T      -0.448000
      4 C66        -11.7670     2.5580    -1.8230 c6         1 J1T       0.153100
      5 C67        -10.5530     1.6290    -2.1220 c6         1 J1T       0.124800
      6 N62         -9.3770     1.9470    -1.2470 n3         1 J1T      -0.714600
      7 C61         -8.1840     1.0990    -1.4920 c3         1 J1T       0.169800
      8 C52         -8.3720    -0.3980    -1.1500 c3         1 J1T      -0.093400
      9 C51         -7.1240    -1.2770    -1.4050 c3         1 J1T       0.247500
     10 C53         -7.4600    -2.7790    -1.2390 c3         1 J1T       0.017600
     11 S54         -6.0190    -3.8590    -1.6800 ss         1 J1T      -0.160000
     12 C55         -6.5810    -5.5490    -1.4390 ca         1 J1T      -0.092000
     13 C56         -5.6710    -6.5900    -1.7030 ca         1 J1T      -0.107000
     14 C57         -6.0530    -7.9320    -1.5340 ca         1 J1T      -0.096000
     15 C58         -7.3510    -8.2430    -1.0970 ca         1 J1T      -0.110000
     16 C59         -8.2660    -7.2100    -0.8310 ca         1 J1T      -0.096000
     17 C60         -7.8850    -5.8670    -1.0000 ca         1 J1T      -0.107000
     18 N50         -6.0270    -0.9230    -0.4810 nu         1 J1T      -0.943200
     19 C40         -5.1430     0.1450    -0.5550 ca         1 J1T       0.505000
     20 C41         -4.6220     0.7500     0.5990 ca         1 J1T      -0.412500
     21 C42         -3.7370     1.8410     0.4800 ca         1 J1T       0.132000
     22 S43         -5.0700     0.2290     2.2640 sy         1 J1T       1.021500
     23 O48         -5.5250    -1.1690     2.2190 o          1 J1T      -0.479000
     24 O49         -3.9760     0.6250     3.1630 o          1 J1T      -0.479000
     25 C44         -6.5260     1.2770     2.6820 c3         1 J1T       0.141000
     26 F46         -6.2280     2.5950     2.5890 f          1 J1T      -0.099000
     27 F47         -7.5660     1.0350     1.8510 f          1 J1T      -0.099000
     28 F45         -6.9530     1.0430     3.9460 f          1 J1T      -0.099000
     29 C39         -4.7560     0.6180    -1.8170 ca         1 J1T      -0.240000
     30 C38         -3.8730     1.6950    -1.9440 ca         1 J1T       0.109000
     31 C37         -3.3680     2.3110    -0.7890 ca         1 J1T      -0.383500
     32 S34         -2.2350     3.6900    -0.9330 sy         1 J1T       1.197300
     33 O35         -2.3640     4.2680    -2.2750 o          1 J1T      -0.526000
     34 O36         -2.3440     4.5150     0.2730 o          1 J1T      -0.526000
     35 N32         -0.7160     3.0020    -0.8510 ns         1 J1T      -0.578300
     36 C31         -0.1560     2.1180    -1.7190 c          1 J1T       0.650700
     37 O33         -0.7490     1.7210    -2.7090 o          1 J1T      -0.565100
     38 C5           1.2470     1.6450    -1.3880 ca         1 J1T      -0.164600
     39 C6           1.8820     0.7150    -2.2410 ca         1 J1T      -0.061500
     40 C1           3.1810     0.2540    -1.9660 ca         1 J1T      -0.115000
     41 C4           1.9550     2.1010    -0.2490 ca         1 J1T      -0.061500
     42 C3           3.2540     1.6340     0.0200 ca         1 J1T      -0.115000
     43 C2           3.8950     0.7020    -0.8300 cp         1 J1T       0.007000
     44 C7           5.2800     0.2090    -0.5390 cp         1 J1T      -0.052000
     45 C12          5.7260     0.0160     0.7910 ca         1 J1T      -0.094000
     46 C11          7.0250    -0.4460     1.0630 ca         1 J1T      -0.104500
     47 C8           6.1920    -0.0770    -1.5850 ca         1 J1T      -0.094000
     48 C9           7.4920    -0.5380    -1.3150 ca         1 J1T      -0.104500
     49 C10          7.9190    -0.7350     0.0150 ca         1 J1T      -0.059300
     50 C13          9.3340    -1.2230     0.3470 c3         1 J1T       0.036900
     51 C14          9.8490    -2.3080    -0.6490 c3         1 J1T       0.181800
     52 N16         10.9880    -3.1340    -0.1720 n3         1 J1T      -0.721600
     53 C17         12.2650    -2.4250     0.0730 c5         1 J1T       0.159800
     54 C18         13.2650    -3.5890     0.3270 c5         1 J1T      -0.079400
     55 C19         12.5700    -4.8360    -0.3030 c5         1 J1T      -0.079400
     56 C20         11.3870    -4.2210    -1.0860 c5         1 J1T       0.159800
     57 C15         10.2660    -0.0060     0.4920 ca         1 J1T      -0.106300
     58 C23         10.7290     0.6630    -0.6690 ca         1 J1T      -0.057000
     59 C26         11.5780     1.7640    -0.5160 ca         1 J1T       0.010100
     60 O30         12.1000     2.5100    -1.5230 os         1 J1T      -0.343100
     61 C29         12.9490     3.4740    -0.8040 c5         1 J1T       0.372600
     62 O28         12.7650     3.2970     0.6460 os         1 J1T      -0.343100
     63 C27         11.9550     2.2120     0.7140 ca         1 J1T       0.090100
     64 C22         11.5110     1.6000     1.8880 ca         1 J1T      -0.184000
     65 C21         10.6530     0.4770     1.7790 ca         1 J1T       0.151100
     66 O24         10.1730    -0.1670     2.9060 os         1 J1T      -0.341100
     67 C25         10.5110     0.2500     4.2400 c3         1 J1T       0.147900
     68 H1          -8.6620     3.6600    -2.3170 h1         1 J1T       0.041700
     69 H2          -8.2660     3.6580    -0.5940 h1         1 J1T       0.041700
     70 H3         -10.6290     4.1520     0.0060 h1         1 J1T       0.052200
     71 H4         -10.0420     5.3550    -1.1680 h1         1 J1T       0.052200
     72 H5         -12.1450     2.3650    -0.8090 h1         1 J1T       0.052200
     73 H6         -12.5790     2.3540    -2.5350 h1         1 J1T       0.052200
     74 H7         -10.8800     0.5900    -1.9770 h1         1 J1T       0.041700
     75 H8         -10.2790     1.7370    -3.1820 h1         1 J1T       0.041700
     76 H10         -7.8730     1.1860    -2.5420 h1         1 J1T       0.036200
     77 H11         -7.3570     1.4830    -0.8820 h1         1 J1T       0.036200
     78 H12         -8.6820    -0.4950    -0.1030 hc         1 J1T       0.062700
     79 H13         -9.1900    -0.7980    -1.7580 hc         1 J1T       0.062700
     80 H14         -6.8130    -1.1430    -2.4490 h1         1 J1T       0.078700
     81 H15         -7.7590    -2.9780    -0.2030 h1         1 J1T       0.079700
     82 H16         -8.2980    -3.0350    -1.8990 h1         1 J1T       0.079700
     83 H17         -4.6640    -6.3570    -2.0420 ha         1 J1T       0.117000
     84 H18         -5.3430    -8.7300    -1.7400 ha         1 J1T       0.115000
     85 H19         -7.6480    -9.2810    -0.9650 ha         1 J1T       0.117000
     86 H20         -9.2710    -7.4510    -0.4930 ha         1 J1T       0.115000
     87 H21         -8.6140    -5.0920    -0.7860 ha         1 J1T       0.117000
     88 H22         -6.0230    -1.4030     0.4210 hn         1 J1T       0.525000
     89 H23         -3.3360     2.3280     1.3720 ha         1 J1T       0.157000
     90 H24         -5.1260     0.1460    -2.7190 ha         1 J1T       0.126000
     91 H25         -3.5840     2.0390    -2.9370 ha         1 J1T       0.153000
     92 H26         -0.2170     3.3010    -0.0340 hn         1 J1T       0.348500
     93 H27          1.3690     0.3390    -3.1240 ha         1 J1T       0.125500
     94 H28          3.6310    -0.4720    -2.6380 ha         1 J1T       0.122500
     95 H29          1.5200     2.8190     0.4400 ha         1 J1T       0.125500
     96 H30          3.7740     2.0140     0.8950 ha         1 J1T       0.122500
     97 H31          5.0560     0.2140     1.6240 ha         1 J1T       0.114000
     98 H32          7.3360    -0.5800     2.0970 ha         1 J1T       0.117500
     99 H33          5.8960     0.0770    -2.6200 ha         1 J1T       0.114000
    100 H34          8.1620    -0.7310    -2.1480 ha         1 J1T       0.117500
    101 H35          9.2730    -1.7560     1.3030 hc         1 J1T       0.090700
    102 H36          9.0060    -2.9820    -0.8510 h1         1 J1T       0.032200
    103 H37         10.1060    -1.8420    -1.6080 h1         1 J1T       0.032200
    104 H39         12.5650    -1.8370    -0.8060 h1         1 J1T       0.035950
    105 H40         12.2160    -1.7470     0.9360 h1         1 J1T       0.035950
    106 H41         14.2380    -3.3810    -0.1310 hc         1 J1T       0.046200
    107 H42         13.4390    -3.7380     1.3990 hc         1 J1T       0.046200
    108 H43         13.2410    -5.4110    -0.9510 hc         1 J1T       0.046200
    109 H44         12.2080    -5.5160     0.4760 hc         1 J1T       0.046200
    110 H45         10.5810    -4.9500    -1.2540 h1         1 J1T       0.035950
    111 H46         11.7090    -3.8310    -2.0630 h1         1 J1T       0.035950
    112 H47         10.4380     0.3450    -1.6650 ha         1 J1T       0.133000
    113 H48         13.9990     3.2840    -1.0570 h2         1 J1T       0.064200
    114 H49         12.6720     4.4950    -1.0890 h2         1 J1T       0.064200
    115 H50         11.8300     1.9990     2.8460 ha         1 J1T       0.139000
    116 H51         10.1790     1.2790     4.4240 h1         1 J1T       0.042367
    117 H52         10.0220    -0.4010     4.9760 h1         1 J1T       0.042367
    118 H53         11.5950     0.1920     4.4040 h1         1 J1T       0.042367
@<TRIPOS>BOND
     1     1     2 1   
     2     1     6 1   
     3     1    68 1   
     4     1    69 1   
     5     2     3 1   
     6     2    70 1   
     7     2    71 1   
     8     3     4 1   
     9     4     5 1   
    10     4    72 1   
    11     4    73 1   
    12     5     6 1   
    13     5    74 1   
    14     5    75 1   
    15     6     7 1   
    16     7     8 1   
    17     7    76 1   
    18     7    77 1   
    19     8     9 1   
    20     8    78 1   
    21     8    79 1   
    22     9    10 1   
    23     9    18 1   
    24     9    80 1   
    25    10    11 1   
    26    10    81 1   
    27    10    82 1   
    28    11    12 1   
    29    12    13 ar  
    30    12    17 ar  
    31    13    14 ar  
    32    13    83 1   
    33    14    15 ar  
    34    14    84 1   
    35    15    16 ar  
    36    15    85 1   
    37    16    17 ar  
    38    16    86 1   
    39    17    87 1   
    40    18    19 1   
    41    18    88 1   
    42    19    20 ar  
    43    19    29 ar  
    44    20    21 ar  
    45    20    22 1   
    46    21    31 ar  
    47    21    89 1   
    48    22    23 2   
    49    22    24 2   
    50    22    25 1   
    51    25    26 1   
    52    25    27 1   
    53    25    28 1   
    54    29    30 ar  
    55    29    90 1   
    56    30    31 ar  
    57    30    91 1   
    58    31    32 1   
    59    32    33 2   
    60    32    34 2   
    61    32    35 1   
    62    35    36 1   
    63    35    92 1   
    64    36    37 2   
    65    36    38 1   
    66    38    39 ar  
    67    38    41 ar  
    68    39    40 ar  
    69    39    93 1   
    70    40    43 ar  
    71    40    94 1   
    72    41    42 ar  
    73    41    95 1   
    74    42    43 ar  
    75    42    96 1   
    76    43    44 1   
    77    44    45 ar  
    78    44    47 ar  
    79    45    46 ar  
    80    45    97 1   
    81    46    49 ar  
    82    46    98 1   
    83    47    48 ar  
    84    47    99 1   
    85    48    49 ar  
    86    48   100 1   
    87    49    50 1   
    88    50    51 1   
    89    50    57 1   
    90    50   101 1   
    91    51    52 1   
    92    51   102 1   
    93    51   103 1   
    94    52    53 1   
    95    52    56 1   
    96    53    54 1   
    97    53   104 1   
    98    53   105 1   
    99    54    55 1   
   100    54   106 1   
   101    54   107 1   
   102    55    56 1   
   103    55   108 1   
   104    55   109 1   
   105    56   110 1   
   106    56   111 1   
   107    57    58 ar  
   108    57    65 ar  
   109    58    59 ar  
   110    58   112 1   
   111    59    60 1   
   112    59    63 ar  
   113    60    61 1   
   114    61    62 1   
   115    61   113 1   
   116    61   114 1   
   117    62    63 1   
   118    63    64 ar  
   119    64    65 ar  
   120    64   115 1   
   121    65    66 1   
   122    66    67 1   
   123    67   116 1   
   124    67   117 1   
   125    67   118 1   
@<TRIPOS>SUBSTRUCTURE
     1 J1T         1 TEMP              0 ****  ****    0 ROOT
