@<TRIPOS>MOLECULE
J1T
  118   125     1     0     0
SMALL
abcg2


@<TRIPOS>ATOM
      1 C63         -9.9880     2.6040    -1.6520 c6         1 J1T       0.124800
      2 C64        -11.4790     2.8390    -1.7940 c6         1 J1T       0.153100
      3 O65        -11.9500     2.4320    -3.0600 os         1 J1T      -0.448000
      4 C66        -11.6550     1.0730    -3.2900 c6         1 J1T       0.153100
      5 C67        -10.1690     0.7940    -3.1770 c6         1 J1T       0.124800
      6 N62         -9.6780     1.2020    -1.8720 n3         1 J1T      -0.714600
      7 C61         -8.2630     0.9360    -1.7020 c3         1 J1T       0.169800
      8 C52         -7.9610    -0.5460    -1.5220 c3         1 J1T      -0.093400
      9 C51         -6.4690    -0.8170    -1.3480 c3         1 J1T       0.247500
     10 C53         -6.1950    -2.3170    -1.3160 c3         1 J1T       0.017600
     11 S54         -4.4170    -2.5720    -1.0630 ss         1 J1T      -0.160000
     12 C55         -4.1820    -4.2730    -1.4570 ca         1 J1T      -0.092000
     13 C56         -2.8610    -4.7030    -1.6030 ca         1 J1T      -0.107000
     14 C57         -2.5870    -6.0310    -1.8890 ca         1 J1T      -0.096000
     15 C58         -3.6220    -6.9470    -2.0410 ca         1 J1T      -0.110000
     16 C59         -4.9330    -6.5190    -1.8970 ca         1 J1T      -0.096000
     17 C60         -5.2190    -5.1920    -1.6010 ca         1 J1T      -0.107000
     18 N50         -5.9510    -0.2150    -0.1300 nu         1 J1T      -0.943200
     19 C40         -5.1690     0.8660    -0.0230 ca         1 J1T       0.505000
     20 C41         -4.6740     1.3380     1.2300 ca         1 J1T      -0.412500
     21 C42         -3.8090     2.4240     1.3170 ca         1 J1T       0.132000
     22 S43         -5.1340     0.6290     2.7630 sy         1 J1T       1.021500
     23 O48         -5.5160    -0.7670     2.6050 o          1 J1T      -0.479000
     24 O49         -4.2030     1.0230     3.8030 o          1 J1T      -0.479000
     25 C44         -6.7090     1.5250     3.1550 c3         1 J1T       0.141000
     26 F46         -6.4580     2.8110     3.3150 f          1 J1T      -0.099000
     27 F47         -7.5690     1.3660     2.1600 f          1 J1T      -0.099000
     28 F45         -7.2180     1.0260     4.2650 f          1 J1T      -0.099000
     29 C39         -4.7830     1.6210    -1.1570 ca         1 J1T      -0.240000
     30 C38         -3.9370     2.6930    -1.0650 ca         1 J1T       0.109000
     31 C37         -3.4260     3.0880     0.1750 ca         1 J1T      -0.383500
     32 S34         -2.3020     4.4250     0.3050 sy         1 J1T       1.197300
     33 O35         -2.4110     5.2480    -0.8800 o          1 J1T      -0.526000
     34 O36         -2.4130     5.0160     1.6250 o          1 J1T      -0.526000
     35 N32         -0.7830     3.7060     0.3310 ns         1 J1T      -0.578300
     36 C31         -0.2910     2.9590    -0.7130 c          1 J1T       0.650700
     37 O33         -0.9340     2.8010    -1.7280 o          1 J1T      -0.565100
     38 C5           1.0480     2.3560    -0.5060 ca         1 J1T      -0.164600
     39 C6           1.4240     1.3050    -1.3410 ca         1 J1T      -0.061500
     40 C1           2.6550     0.6960    -1.1920 ca         1 J1T      -0.115000
     41 C4           1.9440     2.7960     0.4660 ca         1 J1T      -0.061500
     42 C3           3.1790     2.1880     0.6080 ca         1 J1T      -0.115000
     43 C2           3.5540     1.1230    -0.2120 cp         1 J1T       0.007000
     44 C7           4.8620     0.4650    -0.0450 cp         1 J1T      -0.052000
     45 C12          5.4200     0.2860     1.2200 ca         1 J1T      -0.094000
     46 C11          6.6440    -0.3470     1.3740 ca         1 J1T      -0.104500
     47 C8           5.5750    -0.0060    -1.1480 ca         1 J1T      -0.094000
     48 C9           6.8020    -0.6300    -0.9910 ca         1 J1T      -0.104500
     49 C10          7.3580    -0.8160     0.2740 ca         1 J1T      -0.059300
     50 C13          8.7000    -1.4900     0.4700 c3         1 J1T       0.036900
     51 C14          8.8110    -2.7860    -0.3450 c3         1 J1T       0.181800
     52 N16          9.8250    -3.6870     0.1530 n3         1 J1T      -0.721600
     53 C17         11.2020    -3.3250    -0.1430 c5         1 J1T       0.159800
     54 C18         12.0000    -4.6050     0.1380 c5         1 J1T      -0.079400
     55 C19         10.9520    -5.7360     0.0960 c5         1 J1T      -0.079400
     56 C20          9.6790    -5.0370    -0.3660 c5         1 J1T       0.159800
     57 C15          9.8050    -0.4780     0.2230 ca         1 J1T      -0.106300
     58 C23         10.2290    -0.1960    -1.0820 ca         1 J1T      -0.057000
     59 C26         11.2060     0.7480    -1.2680 ca         1 J1T       0.010100
     60 O30         11.8010     1.1570    -2.4240 os         1 J1T      -0.343100
     61 C29         12.5810     2.2880    -2.0690 c5         1 J1T       0.372600
     62 O28         12.7160     2.2740    -0.6520 os         1 J1T      -0.343100
     63 C27         11.7640     1.4200    -0.2030 ca         1 J1T       0.090100
     64 C22         11.3750     1.1870     1.0940 ca         1 J1T      -0.184000
     65 C21         10.3750     0.2220     1.2950 ca         1 J1T       0.151100
     66 O24          9.9080    -0.0770     2.5270 os         1 J1T      -0.341100
     67 C25         10.4700     0.5680     3.6500 c3         1 J1T       0.147900
     68 H1          -9.4440     3.2600    -2.3530 h1         1 J1T       0.041700
     69 H2          -9.6830     2.8890    -0.6420 h1         1 J1T       0.041700
     70 H3         -12.0090     2.3000    -0.9960 h1         1 J1T       0.052200
     71 H4         -11.7020     3.9010    -1.6870 h1         1 J1T       0.052200
     72 H5         -12.1980     0.4360    -2.5770 h1         1 J1T       0.052200
     73 H6         -12.0060     0.8270    -4.2930 h1         1 J1T       0.052200
     74 H7         -10.0120    -0.2770    -3.3230 h1         1 J1T       0.041700
     75 H8          -9.6310     1.3120    -3.9900 h1         1 J1T       0.041700
     76 H10         -7.6730     1.3370    -2.5450 h1         1 J1T       0.036200
     77 H11         -7.9320     1.4760    -0.8100 h1         1 J1T       0.036200
     78 H12         -8.5110    -0.9290    -0.6580 hc         1 J1T       0.062700
     79 H13         -8.2980    -1.1160    -2.3910 hc         1 J1T       0.062700
     80 H14         -5.9310    -0.4100    -2.2040 h1         1 J1T       0.078700
     81 H15         -6.7680    -2.8000    -0.5210 h1         1 J1T       0.079700
     82 H16         -6.4950    -2.7520    -2.2690 h1         1 J1T       0.079700
     83 H17         -2.0450    -3.9980    -1.4980 ha         1 J1T       0.117000
     84 H18         -1.5590    -6.3480    -2.0010 ha         1 J1T       0.115000
     85 H19         -3.4060    -7.9820    -2.2690 ha         1 J1T       0.117000
     86 H20         -5.7500    -7.2200    -2.0100 ha         1 J1T       0.115000
     87 H21         -6.2500    -4.8910    -1.4800 ha         1 J1T       0.117000
     88 H22         -6.1520    -0.7310     0.7160 hn         1 J1T       0.525000
     89 H23         -3.4350     2.7350     2.2840 ha         1 J1T       0.157000
     90 H24         -5.1500     1.3550    -2.1360 ha         1 J1T       0.126000
     91 H25         -3.6770     3.2280    -1.9660 ha         1 J1T       0.153000
     92 H26         -0.3370     3.6940     1.2400 hn         1 J1T       0.348500
     93 H27          0.7420     0.9450    -2.1000 ha         1 J1T       0.125500
     94 H28          2.9070    -0.1400    -1.8310 ha         1 J1T       0.122500
     95 H29          1.7120     3.6360     1.1090 ha         1 J1T       0.125500
     96 H30          3.8650     2.5670     1.3540 ha         1 J1T       0.122500
     97 H31          4.8850     0.6170     2.1010 ha         1 J1T       0.114000
     98 H32          7.0440    -0.4880     2.3700 ha         1 J1T       0.117500
     99 H33          5.1810     0.1320    -2.1470 ha         1 J1T       0.114000
    100 H34          7.3220    -0.9740    -1.8760 ha         1 J1T       0.117500
    101 H35          8.7510    -1.8050     1.5130 hc         1 J1T       0.090700
    102 H36          7.8510    -3.3010    -0.2610 h1         1 J1T       0.032200
    103 H37          8.9500    -2.5810    -1.4210 h1         1 J1T       0.032200
    104 H39         11.3170    -3.0260    -1.1990 h1         1 J1T       0.035950
    105 H40         11.5350    -2.4830     0.4630 h1         1 J1T       0.035950
    106 H41         12.7850    -4.7420    -0.6050 hc         1 J1T       0.046200
    107 H42         12.4870    -4.5610     1.1120 hc         1 J1T       0.046200
    108 H43         11.2330    -6.5500    -0.5720 hc         1 J1T       0.046200
    109 H44         10.8100    -6.1660     1.0880 hc         1 J1T       0.046200
    110 H45          8.7670    -5.5030     0.0140 h1         1 J1T       0.035950
    111 H46          9.6160    -5.0480    -1.4680 h1         1 J1T       0.035950
    112 H47          9.8090    -0.7210    -1.9300 ha         1 J1T       0.133000
    113 H48         13.5660     2.2200    -2.5320 h2         1 J1T       0.064200
    114 H49         12.0730     3.2080    -2.3810 h2         1 J1T       0.064200
    115 H50         11.8290     1.7320     1.9100 ha         1 J1T       0.139000
    116 H51         10.3190     1.6500     3.6200 h1         1 J1T       0.042367
    117 H52          9.9580     0.1690     4.5220 h1         1 J1T       0.042367
    118 H53         11.5400     0.3640     3.7480 h1         1 J1T       0.042367
@<TRIPOS>BOND
     1     1     2 1   
     2     1     6 1   
     3     1    68 1   
     4     1    69 1   
     5     2     3 1   
     6     2    70 1   
     7     2    71 1   
     8     3     4 1   
     9     4     5 1   
    10     4    72 1   
    11     4    73 1   
    12     5     6 1   
    13     5    74 1   
    14     5    75 1   
    15     6     7 1   
    16     7     8 1   
    17     7    76 1   
    18     7    77 1   
    19     8     9 1   
    20     8    78 1   
    21     8    79 1   
    22     9    10 1   
    23     9    18 1   
    24     9    80 1   
    25    10    11 1   
    26    10    81 1   
    27    10    82 1   
    28    11    12 1   
    29    12    13 ar  
    30    12    17 ar  
    31    13    14 ar  
    32    13    83 1   
    33    14    15 ar  
    34    14    84 1   
    35    15    16 ar  
    36    15    85 1   
    37    16    17 ar  
    38    16    86 1   
    39    17    87 1   
    40    18    19 1   
    41    18    88 1   
    42    19    20 ar  
    43    19    29 ar  
    44    20    21 ar  
    45    20    22 1   
    46    21    31 ar  
    47    21    89 1   
    48    22    23 2   
    49    22    24 2   
    50    22    25 1   
    51    25    26 1   
    52    25    27 1   
    53    25    28 1   
    54    29    30 ar  
    55    29    90 1   
    56    30    31 ar  
    57    30    91 1   
    58    31    32 1   
    59    32    33 2   
    60    32    34 2   
    61    32    35 1   
    62    35    36 1   
    63    35    92 1   
    64    36    37 2   
    65    36    38 1   
    66    38    39 ar  
    67    38    41 ar  
    68    39    40 ar  
    69    39    93 1   
    70    40    43 ar  
    71    40    94 1   
    72    41    42 ar  
    73    41    95 1   
    74    42    43 ar  
    75    42    96 1   
    76    43    44 1   
    77    44    45 ar  
    78    44    47 ar  
    79    45    46 ar  
    80    45    97 1   
    81    46    49 ar  
    82    46    98 1   
    83    47    48 ar  
    84    47    99 1   
    85    48    49 ar  
    86    48   100 1   
    87    49    50 1   
    88    50    51 1   
    89    50    57 1   
    90    50   101 1   
    91    51    52 1   
    92    51   102 1   
    93    51   103 1   
    94    52    53 1   
    95    52    56 1   
    96    53    54 1   
    97    53   104 1   
    98    53   105 1   
    99    54    55 1   
   100    54   106 1   
   101    54   107 1   
   102    55    56 1   
   103    55   108 1   
   104    55   109 1   
   105    56   110 1   
   106    56   111 1   
   107    57    58 ar  
   108    57    65 ar  
   109    58    59 ar  
   110    58   112 1   
   111    59    60 1   
   112    59    63 ar  
   113    60    61 1   
   114    61    62 1   
   115    61   113 1   
   116    61   114 1   
   117    62    63 1   
   118    63    64 ar  
   119    64    65 ar  
   120    64   115 1   
   121    65    66 1   
   122    66    67 1   
   123    67   116 1   
   124    67   117 1   
   125    67   118 1   
@<TRIPOS>SUBSTRUCTURE
     1 J1T         1 TEMP              0 ****  ****    0 ROOT
