@<TRIPOS>MOLECULE
J1V
   50    52     1     0     0
SMALL
abcg2


@<TRIPOS>ATOM
      1 CAP          6.1360    -0.9080    -0.6960 c6         1 J1V      -0.066900
      2 CAN          6.9040    -2.1850    -1.0200 c6         1 J1V      -0.074900
      3 CAM          7.0770    -3.0590     0.2180 c6         1 J1V      -0.076400
      4 CAO          5.7290    -3.3800     0.8530 c6         1 J1V      -0.074900
      5 CAQ          4.9500    -2.1090     1.1780 c6         1 J1V      -0.066900
      6 CBB          4.7800    -1.2290    -0.0710 c6         1 J1V      -0.133700
      7 CAU          4.0250     0.0260     0.3070 c          1 J1V       0.604100
      8 OAB          4.5700     1.0300     0.7440 o          1 J1V      -0.600100
      9 N            2.6870    -0.0380     0.1810 ns         1 J1V      -0.498900
     10 CA           1.8520     1.0460     0.6260 c3         1 J1V       0.090000
     11 C            2.1960     2.3250    -0.1490 c          1 J1V       0.605100
     12 O            2.4330     2.3260    -1.3380 o          1 J1V      -0.555100
     13 NAR          2.0960     3.4280     0.6120 ns         1 J1V      -0.374400
     14 OAC          2.4480     4.6380     0.0920 oh         1 J1V      -0.422100
     15 CAZ          0.3930     0.7310     0.4060 ca         1 J1V      -0.103300
     16 CAJ         -0.5070     0.8430     1.4580 ca         1 J1V      -0.092000
     17 CAH         -1.8550     0.5830     1.2690 ca         1 J1V      -0.095500
     18 CAI         -0.0830     0.3510    -0.8470 ca         1 J1V      -0.092000
     19 CAG         -1.4290     0.0860    -1.0360 ca         1 J1V      -0.095500
     20 CAX         -2.3370     0.2000     0.0180 cp         1 J1V      -0.034000
     21 CAY         -3.7710    -0.0780    -0.1860 cp         1 J1V       0.007000
     22 CAK         -4.7360     0.6750     0.4830 ca         1 J1V      -0.139000
     23 CAV         -6.0720     0.4060     0.2820 ca         1 J1V       0.162000
     24 FAD         -7.0050     1.1250     0.9080 f          1 J1V      -0.153500
     25 CBA         -6.4840    -0.5990    -0.5740 ca         1 J1V       0.091000
     26 FAF         -7.7790    -0.8450    -0.7610 f          1 J1V      -0.140000
     27 CAW         -5.5210    -1.3400    -1.2340 ca         1 J1V       0.162000
     28 FAE         -5.9210    -2.3120    -2.0540 f          1 J1V      -0.153500
     29 CAL         -4.1770    -1.0950    -1.0500 ca         1 J1V      -0.139000
     30 H1           6.7220    -0.3000     0.0010 hc         1 J1V       0.052200
     31 H2           6.0020    -0.3100    -1.6010 hc         1 J1V       0.052200
     32 H3           6.3650    -2.7490    -1.7890 hc         1 J1V       0.040200
     33 H4           7.8780    -1.9320    -1.4450 hc         1 J1V       0.040200
     34 H5           7.6030    -3.9820    -0.0410 hc         1 J1V       0.042200
     35 H6           7.7050    -2.5340     0.9470 hc         1 J1V       0.042200
     36 H7           5.1410    -3.9970     0.1650 hc         1 J1V       0.040200
     37 H8           5.8650    -3.9690     1.7630 hc         1 J1V       0.040200
     38 H9           3.9710    -2.3640     1.5920 hc         1 J1V       0.052200
     39 H10          5.4820    -1.5390     1.9460 hc         1 J1V       0.052200
     40 H11          4.1870    -1.7960    -0.7990 hc         1 J1V       0.053700
     41 H12          2.2530    -0.8850    -0.1490 hn         1 J1V       0.327500
     42 H13          2.0070     1.2170     1.6970 h1         1 J1V       0.063700
     43 H14          2.1150     3.3860     1.6210 hn         1 J1V       0.334500
     44 H15          1.6220     5.0710    -0.1560 ho         1 J1V       0.444000
     45 H16         -0.1550     1.1270     2.4420 ha         1 J1V       0.127000
     46 H17         -2.5290     0.6530     2.1130 ha         1 J1V       0.122000
     47 H18          0.5920     0.2760    -1.6900 ha         1 J1V       0.127000
     48 H19         -1.7760    -0.1870    -2.0240 ha         1 J1V       0.122000
     49 H20         -4.4590     1.4890     1.1400 ha         1 J1V       0.142500
     50 H21         -3.4560    -1.7130    -1.5690 ha         1 J1V       0.142500
@<TRIPOS>BOND
     1     1     2 1   
     2     1     6 1   
     3     1    30 1   
     4     1    31 1   
     5     2     3 1   
     6     2    32 1   
     7     2    33 1   
     8     3     4 1   
     9     3    34 1   
    10     3    35 1   
    11     4     5 1   
    12     4    36 1   
    13     4    37 1   
    14     5     6 1   
    15     5    38 1   
    16     5    39 1   
    17     6     7 1   
    18     6    40 1   
    19     7     8 2   
    20     7     9 1   
    21     9    10 1   
    22     9    41 1   
    23    10    11 1   
    24    10    15 1   
    25    10    42 1   
    26    11    12 2   
    27    11    13 1   
    28    13    14 1   
    29    13    43 1   
    30    14    44 1   
    31    15    16 ar  
    32    15    18 ar  
    33    16    17 ar  
    34    16    45 1   
    35    17    20 ar  
    36    17    46 1   
    37    18    19 ar  
    38    18    47 1   
    39    19    20 ar  
    40    19    48 1   
    41    20    21 1   
    42    21    22 ar  
    43    21    29 ar  
    44    22    23 ar  
    45    22    49 1   
    46    23    24 1   
    47    23    25 ar  
    48    25    26 1   
    49    25    27 ar  
    50    27    28 1   
    51    27    29 ar  
    52    29    50 1   
@<TRIPOS>SUBSTRUCTURE
     1 J1V         1 TEMP              0 ****  ****    0 ROOT
