@<TRIPOS>MOLECULE
J1V
   50    52     1     0     0
SMALL
No Charge or Current Charge


@<TRIPOS>ATOM
      1 CAP          6.0660    -1.0000    -0.5690 c6         1 J1V      -0.066900
      2 CAN          6.7170    -2.3070    -1.0880 c6         1 J1V      -0.074900
      3 CAM          7.0030    -3.2950     0.0720 c6         1 J1V      -0.076400
      4 CAO          5.7130    -3.6200     0.8670 c6         1 J1V      -0.074900
      5 CAQ          5.0480    -2.3320     1.4150 c6         1 J1V      -0.066900
      6 CBB          4.8000    -1.3030     0.2780 c6         1 J1V      -0.133700
      7 CAU          4.0700    -0.0300     0.7570 c          1 J1V       0.604100
      8 OAB          4.5790     0.7540     1.5460 o          1 J1V      -0.600100
      9 N            2.8100     0.1710     0.2430 ns         1 J1V      -0.498900
     10 CA           1.9520     1.3280     0.5650 c3         1 J1V       0.090000
     11 C            2.3440     2.5930    -0.2620 c          1 J1V       0.605100
     12 O            3.1460     2.5740    -1.1930 o          1 J1V      -0.555100
     13 NAR          1.6790     3.7600     0.1110 ns         1 J1V      -0.374400
     14 OAC          2.1050     5.0550    -0.3800 oh         1 J1V      -0.422100
     15 CAZ          0.4830     0.9590     0.3710 ca         1 J1V      -0.103300
     16 CAJ         -0.3700     0.8360     1.4830 ca         1 J1V      -0.092000
     17 CAH         -1.7220     0.4950     1.3070 ca         1 J1V      -0.095500
     18 CAI         -0.0340     0.7300    -0.9190 ca         1 J1V      -0.092000
     19 CAG         -1.3860     0.3880    -1.0920 ca         1 J1V      -0.095500
     20 CAX         -2.2600     0.2640     0.0160 cp         1 J1V      -0.034000
     21 CAY         -3.7000    -0.1010    -0.1690 cp         1 J1V       0.007000
     22 CAK         -4.7080     0.4430     0.6680 ca         1 J1V      -0.139000
     23 CAV         -6.0590     0.1010     0.4930 ca         1 J1V       0.162000
     24 FAD         -6.9940     0.6430     1.3080 f          1 J1V      -0.153500
     25 CBA         -6.4390    -0.7930    -0.5220 ca         1 J1V       0.091000
     26 FAF         -7.7420    -1.1230    -0.6890 f          1 J1V      -0.140000
     27 CAW         -5.4550    -1.3430    -1.3610 ca         1 J1V       0.162000
     28 FAE         -5.8020    -2.2100    -2.3400 f          1 J1V      -0.153500
     29 CAL         -4.1030    -1.0020    -1.1880 ca         1 J1V      -0.139000
     30 H1           6.7940    -0.4440     0.0390 hc         1 J1V       0.052200
     31 H2           5.8080    -0.3510    -1.4170 hc         1 J1V       0.052200
     32 H3           6.0540    -2.7840    -1.8230 hc         1 J1V       0.040200
     33 H4           7.6510    -2.0730    -1.6170 hc         1 J1V       0.040200
     34 H5           7.4350    -4.2230    -0.3290 hc         1 J1V       0.042200
     35 H6           7.7570    -2.8670     0.7470 hc         1 J1V       0.042200
     36 H7           5.0050    -4.1550     0.2200 hc         1 J1V       0.040200
     37 H8           5.9480    -4.2980     1.6990 hc         1 J1V       0.040200
     38 H9           4.0990    -2.5840     1.9090 hc         1 J1V       0.052200
     39 H10          5.6920    -1.8840     2.1850 hc         1 J1V       0.052200
     40 H11          4.0990    -1.7930    -0.4120 hc         1 J1V       0.053700
     41 H12          2.4610    -0.5250    -0.4050 hn         1 J1V       0.327500
     42 H13          2.1100     1.5870     1.6200 h1         1 J1V       0.063700
     43 H14          1.1150     3.7630     0.9600 hn         1 J1V       0.334500
     44 H15          1.2700     5.4640    -0.7090 ho         1 J1V       0.444000
     45 H16          0.0120     0.9990     2.4890 ha         1 J1V       0.127000
     46 H17         -2.3550     0.3940     2.1850 ha         1 J1V       0.122000
     47 H18          0.6090     0.8180    -1.7930 ha         1 J1V       0.127000
     48 H19         -1.7610     0.2310    -2.1000 ha         1 J1V       0.122000
     49 H20         -4.4450     1.1480     1.4520 ha         1 J1V       0.142500
     50 H21         -3.3630    -1.4530    -1.8420 ha         1 J1V       0.142500
@<TRIPOS>BOND
     1     1     2 1   
     2     1     6 1   
     3     1    30 1   
     4     1    31 1   
     5     2     3 1   
     6     2    32 1   
     7     2    33 1   
     8     3     4 1   
     9     3    34 1   
    10     3    35 1   
    11     4     5 1   
    12     4    36 1   
    13     4    37 1   
    14     5     6 1   
    15     5    38 1   
    16     5    39 1   
    17     6     7 1   
    18     6    40 1   
    19     7     8 2   
    20     7     9 1   
    21     9    10 1   
    22     9    41 1   
    23    10    11 1   
    24    10    15 1   
    25    10    42 1   
    26    11    12 2   
    27    11    13 1   
    28    13    14 1   
    29    13    43 1   
    30    14    44 1   
    31    15    16 ar  
    32    15    18 ar  
    33    16    17 ar  
    34    16    45 1   
    35    17    20 ar  
    36    17    46 1   
    37    18    19 ar  
    38    18    47 1   
    39    19    20 ar  
    40    19    48 1   
    41    20    21 1   
    42    21    22 ar  
    43    21    29 ar  
    44    22    23 ar  
    45    22    49 1   
    46    23    24 1   
    47    23    25 ar  
    48    25    26 1   
    49    25    27 ar  
    50    27    28 1   
    51    27    29 ar  
    52    29    50 1   
@<TRIPOS>SUBSTRUCTURE
     1 J1V         1 TEMP              0 ****  ****    0 ROOT
