@<TRIPOS>MOLECULE
J1W
   49    48     1     0     0
SMALL
No Charge or Current Charge


@<TRIPOS>ATOM
      1 C10         -0.9170    -0.7090     0.2210 c3         1 J1W      -0.074400
      2 C13          2.9700    -0.2650    -0.3790 c3         1 J1W      -0.080400
      3 C15          5.5620    -0.4570    -0.4360 c3         1 J1W       0.018300
      4 C17          6.7640    -1.4000    -0.1330 c          1 J1W       0.729000
      5 C01        -12.4630     0.5490    -0.1980 c3         1 J1W      -0.088100
      6 C02        -11.2070    -0.1650     0.3400 c3         1 J1W      -0.075400
      7 C03         -9.8930     0.4140    -0.2280 c3         1 J1W      -0.075400
      8 C04         -8.6340    -0.3010     0.3100 c3         1 J1W      -0.074400
      9 C05         -7.3200     0.2790    -0.2580 c3         1 J1W      -0.074400
     10 C06         -6.0620    -0.4370     0.2810 c3         1 J1W      -0.073400
     11 C07         -4.7480     0.1430    -0.2870 c3         1 J1W      -0.075400
     12 C08         -3.4890    -0.5730     0.2510 c3         1 J1W      -0.073400
     13 C09         -2.1750     0.0070    -0.3170 c3         1 J1W      -0.075400
     14 C11          0.3970    -0.1290    -0.3480 c3         1 J1W      -0.075400
     15 C12          1.6560    -0.8450     0.1900 c3         1 J1W      -0.073400
     16 C14          4.2300    -0.9830     0.1610 c3         1 J1W      -0.065400
     17 O18          7.4560    -1.7710    -1.0710 o          1 J1W      -0.709500
     18 O19          6.9930    -1.7060     1.0310 o          1 J1W      -0.709500
     19 Br           5.9120     1.4500     0.1290 br         1 J1W      -0.380000
     20 H101        -0.9000    -0.6330     1.3150 hc         1 J1W       0.035700
     21 H102        -0.9760    -1.7760    -0.0260 hc         1 J1W       0.035700
     22 H132         2.9530    -0.3430    -1.4730 hc         1 J1W       0.034700
     23 H131         3.0200     0.8030    -0.1340 hc         1 J1W       0.034700
     24 H151         5.4590    -0.4130    -1.5270 h1         1 J1W       0.055700
     25 H011       -13.3680     0.1040     0.2320 hc         1 J1W       0.029700
     26 H013       -12.4460     1.6130     0.0640 hc         1 J1W       0.029700
     27 H012       -12.5220     0.4600    -1.2890 hc         1 J1W       0.029700
     28 H022       -11.1950    -0.0890     1.4340 hc         1 J1W       0.035700
     29 H021       -11.2710    -1.2320     0.0930 hc         1 J1W       0.035700
     30 H032        -9.9090     0.3390    -1.3230 hc         1 J1W       0.036700
     31 H031        -9.8340     1.4820     0.0180 hc         1 J1W       0.036700
     32 H042        -8.6180    -0.2250     1.4050 hc         1 J1W       0.036700
     33 H041        -8.6930    -1.3680     0.0640 hc         1 J1W       0.036700
     34 H052        -7.3370     0.2030    -1.3520 hc         1 J1W       0.036200
     35 H051        -7.2610     1.3460    -0.0110 hc         1 J1W       0.036200
     36 H061        -6.0450    -0.3610     1.3750 hc         1 J1W       0.036700
     37 H062        -6.1210    -1.5040     0.0340 hc         1 J1W       0.036700
     38 H072        -4.7640     0.0670    -1.3820 hc         1 J1W       0.035700
     39 H071        -4.6880     1.2100    -0.0400 hc         1 J1W       0.035700
     40 H081        -3.4720    -0.4970     1.3460 hc         1 J1W       0.035700
     41 H082        -3.5480    -1.6400     0.0040 hc         1 J1W       0.035700
     42 H091        -2.1160     1.0740    -0.0700 hc         1 J1W       0.034700
     43 H092        -2.1920    -0.0690    -1.4120 hc         1 J1W       0.034700
     44 H112         0.3800    -0.2050    -1.4420 hc         1 J1W       0.033700
     45 H111         0.4570     0.9380    -0.1010 hc         1 J1W       0.033700
     46 H122         1.5960    -1.9120    -0.0570 hc         1 J1W       0.034700
     47 H121         1.6730    -0.7690     1.2840 hc         1 J1W       0.034700
     48 H142         4.2620    -0.8970     1.2540 hc         1 J1W       0.053700
     49 H141         4.1440    -2.0520    -0.0690 hc         1 J1W       0.053700
@<TRIPOS>BOND
     1     1    13 1   
     2     1    14 1   
     3     1    20 1   
     4     1    21 1   
     5     2    15 1   
     6     2    16 1   
     7     2    22 1   
     8     2    23 1   
     9     3     4 1   
    10     3    16 1   
    11     3    19 1   
    12     3    24 1   
    13     4    17 1   
    14     4    18 1   
    15     5     6 1   
    16     5    25 1   
    17     5    26 1   
    18     5    27 1   
    19     6     7 1   
    20     6    28 1   
    21     6    29 1   
    22     7     8 1   
    23     7    30 1   
    24     7    31 1   
    25     8     9 1   
    26     8    32 1   
    27     8    33 1   
    28     9    10 1   
    29     9    34 1   
    30     9    35 1   
    31    10    11 1   
    32    10    36 1   
    33    10    37 1   
    34    11    12 1   
    35    11    38 1   
    36    11    39 1   
    37    12    13 1   
    38    12    40 1   
    39    12    41 1   
    40    13    42 1   
    41    13    43 1   
    42    14    15 1   
    43    14    44 1   
    44    14    45 1   
    45    15    46 1   
    46    15    47 1   
    47    16    48 1   
    48    16    49 1   
@<TRIPOS>SUBSTRUCTURE
     1 J1W         1 TEMP              0 ****  ****    0 ROOT
