@<TRIPOS>MOLECULE
J1W
   49    48     1     0     0
SMALL
abcg2


@<TRIPOS>ATOM
      1 C10         -0.9300    -0.6450     0.3800 c3         1 J1W      -0.074400
      2 C13          2.8830    -0.2190    -0.3580 c3         1 J1W      -0.080400
      3 C15          5.4150    -0.5190    -0.6030 c3         1 J1W       0.018300
      4 C17          6.6300    -1.4480    -0.3620 c          1 J1W       0.729000
      5 C01        -12.3300     0.4970    -0.3950 c3         1 J1W      -0.088100
      6 C02        -11.1170    -0.1740     0.2340 c3         1 J1W      -0.075400
      7 C03         -9.7960     0.3650    -0.3010 c3         1 J1W      -0.075400
      8 C04         -8.5740    -0.2980     0.3210 c3         1 J1W      -0.074400
      9 C05         -7.2580     0.2450    -0.2200 c3         1 J1W      -0.074400
     10 C06         -6.0280    -0.4140     0.3910 c3         1 J1W      -0.073400
     11 C07         -4.7210     0.1350    -0.1670 c3         1 J1W      -0.075400
     12 C08         -3.4790    -0.5250     0.4190 c3         1 J1W      -0.073400
     13 C09         -2.1840     0.0280    -0.1630 c3         1 J1W      -0.075400
     14 C11          0.3520    -0.0850    -0.2230 c3         1 J1W      -0.075400
     15 C12          1.6110    -0.8010     0.2470 c3         1 J1W      -0.073400
     16 C14          4.1280    -1.0050     0.0260 c3         1 J1W      -0.065400
     17 O18          7.3450    -1.6660    -1.3550 o          1 J1W      -0.709500
     18 O19          6.7640    -1.8940     0.7890 o          1 J1W      -0.709500
     19 BR           5.9200     1.2640     0.1430 br         1 J1W      -0.380000
     20 H101        -0.8990    -0.5390     1.4700 hc         1 J1W       0.035700
     21 H102        -0.9840    -1.7220     0.1830 hc         1 J1W       0.035700
     22 H132         2.7900    -0.2060    -1.4500 hc         1 J1W       0.034700
     23 H131         2.9820     0.8260    -0.0480 hc         1 J1W       0.034700
     24 H151         5.2800    -0.3290    -1.6690 h1         1 J1W       0.055700
     25 H011       -13.2630     0.0960     0.0030 hc         1 J1W       0.029700
     26 H013       -12.3260     1.5730    -0.2090 hc         1 J1W       0.029700
     27 H012       -12.3440     0.3530    -1.4770 hc         1 J1W       0.029700
     28 H022       -11.1480    -0.0440     1.3200 hc         1 J1W       0.035700
     29 H021       -11.1640    -1.2540     0.0590 hc         1 J1W       0.035700
     30 H032        -9.7650     0.2340    -1.3880 hc         1 J1W       0.036700
     31 H031        -9.7500     1.4460    -0.1280 hc         1 J1W       0.036700
     32 H042        -8.6030    -0.1670     1.4090 hc         1 J1W       0.036700
     33 H041        -8.6200    -1.3790     0.1480 hc         1 J1W       0.036700
     34 H052        -7.2340     0.1160    -1.3080 hc         1 J1W       0.036200
     35 H051        -7.2130     1.3260    -0.0450 hc         1 J1W       0.036200
     36 H061        -6.0450    -0.2830     1.4780 hc         1 J1W       0.036700
     37 H062        -6.0720    -1.4950     0.2170 hc         1 J1W       0.036700
     38 H072        -4.7130     0.0120    -1.2560 hc         1 J1W       0.035700
     39 H071        -4.6760     1.2150     0.0120 hc         1 J1W       0.035700
     40 H081        -3.4750    -0.3980     1.5070 hc         1 J1W       0.035700
     41 H082        -3.5250    -1.6050     0.2410 hc         1 J1W       0.035700
     42 H091        -2.1310     1.1060     0.0290 hc         1 J1W       0.034700
     43 H092        -2.2050    -0.0800    -1.2530 hc         1 J1W       0.034700
     44 H112         0.2920    -0.1490    -1.3150 hc         1 J1W       0.033700
     45 H111         0.4290     0.9820     0.0120 hc         1 J1W       0.033700
     46 H122         1.5380    -1.8640    -0.0090 hc         1 J1W       0.034700
     47 H121         1.6740    -0.7570     1.3400 hc         1 J1W       0.034700
     48 H142         4.2380    -1.0570     1.1110 hc         1 J1W       0.053700
     49 H141         4.0010    -2.0410    -0.3130 hc         1 J1W       0.053700
@<TRIPOS>BOND
     1     1    13 1   
     2     1    14 1   
     3     1    20 1   
     4     1    21 1   
     5     2    15 1   
     6     2    16 1   
     7     2    22 1   
     8     2    23 1   
     9     3     4 1   
    10     3    16 1   
    11     3    19 1   
    12     3    24 1   
    13     4    17 1   
    14     4    18 1   
    15     5     6 1   
    16     5    25 1   
    17     5    26 1   
    18     5    27 1   
    19     6     7 1   
    20     6    28 1   
    21     6    29 1   
    22     7     8 1   
    23     7    30 1   
    24     7    31 1   
    25     8     9 1   
    26     8    32 1   
    27     8    33 1   
    28     9    10 1   
    29     9    34 1   
    30     9    35 1   
    31    10    11 1   
    32    10    36 1   
    33    10    37 1   
    34    11    12 1   
    35    11    38 1   
    36    11    39 1   
    37    12    13 1   
    38    12    40 1   
    39    12    41 1   
    40    13    42 1   
    41    13    43 1   
    42    14    15 1   
    43    14    44 1   
    44    14    45 1   
    45    15    46 1   
    46    15    47 1   
    47    16    48 1   
    48    16    49 1   
@<TRIPOS>SUBSTRUCTURE
     1 J1W         1 TEMP              0 ****  ****    0 ROOT
