@<TRIPOS>MOLECULE
J1X
   41    44     1     0     0
SMALL
No Charge or Current Charge


@<TRIPOS>ATOM
      1 C02        -31.7500    40.0360    32.1580 c          1 J1X       0.623700
      2 C03        -33.1880    40.3260    31.7620 ca         1 J1X      -0.147600
      3 C04        -34.1730    40.4280    32.7710 ca         1 J1X      -0.018000
      4 C05        -35.5220    40.6960    32.4540 ca         1 J1X      -0.190300
      5 C06        -36.5660    40.8150    33.5700 c3         1 J1X       0.361300
      6 C10        -35.8860    40.8780    31.1030 ca         1 J1X      -0.035000
      7 C11        -34.9240    40.7750    30.0840 ca         1 J1X       0.019800
      8 C14        -36.1000    41.6540    26.9620 cc         1 J1X       0.254900
      9 C15        -35.5990    40.3620    26.7080 cc         1 J1X      -0.214000
     10 C16        -35.0840    39.8900    27.8790 cd         1 J1X      -0.160000
     11 C17        -33.5820    40.5020    30.4120 ca         1 J1X      -0.088000
     12 C19        -29.4370    39.7010    31.0720 ca         1 J1X      -0.021000
     13 C20        -28.8330    39.5950    29.8030 ca         1 J1X      -0.121000
     14 C21        -27.4470    39.3580    29.6630 ca         1 J1X      -0.113500
     15 C22        -26.8420    39.2500    28.3240 cc         1 J1X       0.458000
     16 C27        -26.6630    39.2290    30.8300 ca         1 J1X      -0.122000
     17 C28        -27.2540    39.3360    32.0990 ca         1 J1X      -0.083000
     18 C29        -28.6320    39.5720    32.2240 ca         1 J1X      -0.110000
     19 F07        -37.8230    40.5670    33.1350 f          1 J1X      -0.107667
     20 F08        -36.3320    39.9480    34.5810 f          1 J1X      -0.107667
     21 F09        -36.5720    42.0550    34.1060 f          1 J1X      -0.107667
     22 N12        -35.3040    40.9550    28.7530 na         1 J1X       0.213000
     23 N13        -35.9480    42.0530    28.2110 nd         1 J1X      -0.514800
     24 N18        -30.8400    39.9430    31.1110 ns         1 J1X      -0.142000
     25 N23        -25.5240    39.0240    28.0480 na         1 J1X      -0.208700
     26 N24        -25.3170    38.9830    26.7080 nc         1 J1X      -0.200800
     27 N25        -26.4990    39.1830    26.1910 nd         1 J1X      -0.039000
     28 N26        -27.4580    39.3500    27.1620 nd         1 J1X      -0.393000
     29 O01        -31.4370    39.8920    33.3350 o          1 J1X      -0.563100
     30 H1         -33.8880    40.3030    33.8150 ha         1 J1X       0.158000
     31 H2         -36.9180    41.1010    30.8340 ha         1 J1X       0.163000
     32 H3         -36.5830    42.3180    26.2570 h4         1 J1X       0.045100
     33 H4         -35.6360    39.8540    25.7490 ha         1 J1X       0.153000
     34 H5         -34.6130    38.9520    28.1520 h4         1 J1X       0.156000
     35 H6         -32.8590    40.4400    29.6020 ha         1 J1X       0.128000
     36 H7         -29.4530    39.6980    28.9140 ha         1 J1X       0.138000
     37 H8         -25.5930    39.0460    30.7670 ha         1 J1X       0.110000
     38 H9         -26.6390    39.2370    32.9920 ha         1 J1X       0.124000
     39 H10        -29.0480    39.6530    33.2230 ha         1 J1X       0.155000
     40 H11        -31.2510    40.0730    30.1970 hn         1 J1X       0.158000
     41 H12        -24.7760    38.8990    28.7180 hn         1 J1X       0.389000
@<TRIPOS>BOND
     1     1     2 1   
     2     1    24 1   
     3     1    29 2   
     4     2     3 ar  
     5     2    11 ar  
     6     3     4 ar  
     7     3    30 1   
     8     4     5 1   
     9     4     6 ar  
    10     5    19 1   
    11     5    20 1   
    12     5    21 1   
    13     6     7 ar  
    14     6    31 1   
    15     7    11 ar  
    16     7    22 1   
    17     8     9 1   
    18     8    23 2   
    19     8    32 1   
    20     9    10 2   
    21     9    33 1   
    22    10    22 1   
    23    10    34 1   
    24    11    35 1   
    25    12    13 ar  
    26    12    18 ar  
    27    12    24 1   
    28    13    14 ar  
    29    13    36 1   
    30    14    15 1   
    31    14    16 ar  
    32    15    25 1   
    33    15    28 2   
    34    16    17 ar  
    35    16    37 1   
    36    17    18 ar  
    37    17    38 1   
    38    18    39 1   
    39    22    23 1   
    40    24    40 1   
    41    25    26 1   
    42    25    41 1   
    43    26    27 2   
    44    27    28 1   
@<TRIPOS>SUBSTRUCTURE
     1 J1X         1 TEMP              0 ****  ****    0 ROOT
