@<TRIPOS>MOLECULE
J1X
   41    44     1     0     0
SMALL
abcg2


@<TRIPOS>ATOM
      1 C02        -31.6660    40.3670    32.0250 c          1 J1X       0.623700
      2 C03        -33.1160    40.4290    31.6580 ca         1 J1X      -0.147600
      3 C04        -34.0500    40.2190    32.6680 ca         1 J1X      -0.018000
      4 C05        -35.3980    40.3030    32.3720 ca         1 J1X      -0.190300
      5 C06        -36.4400    40.0850    33.4290 c3         1 J1X       0.361300
      6 C10        -35.8310    40.6050    31.0870 ca         1 J1X      -0.035000
      7 C11        -34.8950    40.8320    30.0910 ca         1 J1X       0.019800
      8 C14        -36.6330    41.8570    27.3010 cc         1 J1X       0.254900
      9 C15        -35.4720    41.4250    26.6310 cc         1 J1X      -0.214000
     10 C16        -34.6510    40.9750    27.6300 cd         1 J1X      -0.160000
     11 C17        -33.5370    40.7530    30.3760 ca         1 J1X      -0.088000
     12 C19        -29.4540    39.8430    31.0270 ca         1 J1X      -0.021000
     13 C20        -28.8790    39.2920    29.8840 ca         1 J1X      -0.121000
     14 C21        -27.5010    39.1600    29.7720 ca         1 J1X      -0.113500
     15 C22        -26.9550    38.5760    28.5540 cc         1 J1X       0.458000
     16 C27        -26.6760    39.5840    30.8110 ca         1 J1X      -0.122000
     17 C28        -27.2510    40.1330    31.9440 ca         1 J1X      -0.083000
     18 C29        -28.6260    40.2680    32.0680 ca         1 J1X      -0.110000
     19 F07        -37.3380    39.1670    33.0510 f          1 J1X      -0.107667
     20 F08        -35.9190    39.6760    34.5870 f          1 J1X      -0.107667
     21 F09        -37.1220    41.2110    33.6770 f          1 J1X      -0.107667
     22 N12        -35.3230    41.1540    28.7940 na         1 J1X       0.213000
     23 N13        -36.5330    41.6880    28.6010 nd         1 J1X      -0.514800
     24 N18        -30.8470    39.9430    31.0310 ns         1 J1X      -0.142000
     25 N23        -25.6650    38.3710    28.2740 na         1 J1X      -0.208700
     26 N24        -25.5630    37.8220    27.0770 nc         1 J1X      -0.200800
     27 N25        -26.7530    37.6930    26.6380 nd         1 J1X      -0.039000
     28 N26        -27.6410    38.1460    27.5180 nd         1 J1X      -0.393000
     29 O01        -31.2940    40.6730    33.1420 o          1 J1X      -0.563100
     30 H1         -33.7070    39.9870    33.6670 ha         1 J1X       0.158000
     31 H2         -36.8850    40.6690    30.8510 ha         1 J1X       0.163000
     32 H3         -37.5280    42.2870    26.8780 h4         1 J1X       0.045100
     33 H4         -35.2700    41.4340    25.5740 ha         1 J1X       0.153000
     34 H5         -33.6720    40.5290    27.5900 h4         1 J1X       0.156000
     35 H6         -32.8140    40.9900    29.6070 ha         1 J1X       0.128000
     36 H7         -29.5120    38.9630    29.0680 ha         1 J1X       0.138000
     37 H8         -25.5990    39.4940    30.7540 ha         1 J1X       0.110000
     38 H9         -26.6190    40.4660    32.7550 ha         1 J1X       0.124000
     39 H10        -29.0350    40.6990    32.9660 ha         1 J1X       0.155000
     40 H11        -31.2920    39.5920    30.1970 hn         1 J1X       0.158000
     41 H12        -24.8340    38.5660    28.8140 hn         1 J1X       0.389000
@<TRIPOS>BOND
     1     1     2 1   
     2     1    24 1   
     3     1    29 2   
     4     2     3 ar  
     5     2    11 ar  
     6     3     4 ar  
     7     3    30 1   
     8     4     5 1   
     9     4     6 ar  
    10     5    19 1   
    11     5    20 1   
    12     5    21 1   
    13     6     7 ar  
    14     6    31 1   
    15     7    11 ar  
    16     7    22 1   
    17     8     9 1   
    18     8    23 2   
    19     8    32 1   
    20     9    10 2   
    21     9    33 1   
    22    10    22 1   
    23    10    34 1   
    24    11    35 1   
    25    12    13 ar  
    26    12    18 ar  
    27    12    24 1   
    28    13    14 ar  
    29    13    36 1   
    30    14    15 1   
    31    14    16 ar  
    32    15    25 1   
    33    15    28 2   
    34    16    17 ar  
    35    16    37 1   
    36    17    18 ar  
    37    17    38 1   
    38    18    39 1   
    39    22    23 1   
    40    24    40 1   
    41    25    26 1   
    42    25    41 1   
    43    26    27 2   
    44    27    28 1   
@<TRIPOS>SUBSTRUCTURE
     1 J1X         1 TEMP              0 ****  ****    0 ROOT
