@<TRIPOS>MOLECULE
J1Z
   12    13     1     0     0
SMALL
No Charge or Current Charge


@<TRIPOS>ATOM
      1 CAA          2.0900    -0.9710    -0.0160 cc         1 J1Z      -0.226000
      2 CAB         -2.0470     0.9810    -0.0200 cc         1 J1Z      -0.226000
      3 CAC          0.8660    -1.6230    -0.0130 cd         1 J1Z      -0.085000
      4 CAD         -0.7820     1.5480    -0.0220 cd         1 J1Z      -0.085000
      5 SAE          1.9080     0.8080    -0.0220 ss         1 J1Z       0.213500
      6 SAF         -1.9530    -0.8120    -0.0140 ss         1 J1Z       0.213500
      7 CAG         -0.1990    -0.6900    -0.0150 cd         1 J1Z      -0.191000
      8 CAH          0.1750     0.5850    -0.0200 cc         1 J1Z      -0.191000
      9 HAA          3.0840    -1.3980    -0.0150 h4         1 J1Z       0.148000
     10 HAB         -3.0150     1.4660    -0.0210 h4         1 J1Z       0.148000
     11 HAC          0.7420    -2.7020    -0.0090 ha         1 J1Z       0.140000
     12 HAD         -0.5840     2.6160    -0.0260 ha         1 J1Z       0.140000
@<TRIPOS>BOND
     1     1     3 2   
     2     1     5 1   
     3     1     9 1   
     4     2     4 2   
     5     2     6 1   
     6     2    10 1   
     7     3     7 1   
     8     3    11 1   
     9     4     8 1   
    10     4    12 1   
    11     5     8 1   
    12     6     7 1   
    13     7     8 2   
@<TRIPOS>SUBSTRUCTURE
     1 J1Z         1 TEMP              0 ****  ****    0 ROOT
