@<TRIPOS>MOLECULE
J1Z
   12    13     1     0     0
SMALL
bcc


@<TRIPOS>ATOM
      1 CAA          2.0790    -0.9930    -0.0150 cc         1 J1Z      -0.099100
      2 CAB         -2.0320     0.9610    -0.0210 cc         1 J1Z      -0.099100
      3 CAC          0.8730    -1.6200    -0.0130 cd         1 J1Z      -0.103000
      4 CAD         -0.8260     1.5880    -0.0230 cd         1 J1Z      -0.103000
      5 SAE          1.9540     0.7320    -0.0210 ss         1 J1Z      -0.076300
      6 SAF         -1.9060    -0.7640    -0.0140 ss         1 J1Z      -0.076300
      7 CAG         -0.1870    -0.6740    -0.0140 cd         1 J1Z      -0.046100
      8 CAH          0.2350     0.6420    -0.0190 cc         1 J1Z      -0.046100
      9 HAA          3.0550    -1.4550    -0.0160 h4         1 J1Z       0.166000
     10 HAB         -3.0070     1.4220    -0.0200 h4         1 J1Z       0.166000
     11 HAC          0.7510    -2.6930    -0.0090 ha         1 J1Z       0.158000
     12 HAD         -0.7050     2.6610    -0.0260 ha         1 J1Z       0.158000
@<TRIPOS>BOND
     1     1     3 2   
     2     1     5 1   
     3     1     9 1   
     4     2     4 2   
     5     2     6 1   
     6     2    10 1   
     7     3     7 1   
     8     3    11 1   
     9     4     8 1   
    10     4    12 1   
    11     5     8 1   
    12     6     7 1   
    13     7     8 2   
@<TRIPOS>SUBSTRUCTURE
     1 J1Z         1 TEMP              0 ****  ****    0 ROOT
