@<TRIPOS>MOLECULE
J20
   67    72     1     0     0
SMALL
No Charge or Current Charge


@<TRIPOS>ATOM
      1 O41        -25.7410     5.4750    22.5850 o          1 J20      -0.529100
      2 C40        -25.7400     5.2290    23.7880 c          1 J20       0.581500
      3 C12        -26.5420     6.0250    24.7920 ca         1 J20      -0.189600
      4 C13        -26.5330     5.6950    26.1750 ca         1 J20       0.106000
      5 C16        -25.8040     4.5640    26.6750 cg         1 J20      -0.124000
      6 C17        -25.2230     3.5910    27.1250 ch         1 J20      -0.073000
      7 C18        -24.5810     2.4570    27.6970 ca         1 J20      -0.022000
      8 C19        -25.2500     1.6910    28.6700 ca         1 J20      -0.047000
      9 C20        -24.6180     0.5740    29.2460 ca         1 J20      -0.176500
     10 C21        -23.3170     0.2230    28.8500 ca         1 J20       0.146100
     11 O39        -22.6980    -0.8570    29.4020 oh         1 J20      -0.534100
     12 C22        -22.6480     0.9860    27.8810 ca         1 J20      -0.176500
     13 C23        -23.2770     2.1030    27.3030 ca         1 J20      -0.047000
     14 C8         -27.3070     6.4810    27.0560 ca         1 J20      -0.083300
     15 C7         -28.0820     7.5500    26.6000 cp         1 J20       0.008000
     16 C10        -28.0950     7.8810    25.2340 ca         1 J20      -0.107000
     17 C11        -27.3220     7.1210    24.3370 ca         1 J20      -0.047000
     18 C9         -27.5040     6.4030    28.5970 c5         1 J20       0.157200
     19 C5         -28.5010     7.5450    28.9070 ca         1 J20      -0.027300
     20 C6         -29.0500     7.9760    30.1250 ca         1 J20      -0.177000
     21 C1         -29.9340     9.0730    30.1070 ca         1 J20       0.144100
     22 O37        -30.4890     9.5200    31.2690 oh         1 J20      -0.535100
     23 C2         -30.2500     9.7190    28.8930 ca         1 J20      -0.146000
     24 C3         -29.6830     9.2800    27.6790 ca         1 J20      -0.042000
     25 C4         -28.8000     8.1810    27.7010 cp         1 J20      -0.096000
     26 C14        -28.1610     5.0760    29.0560 ca         1 J20      -0.104800
     27 C29        -28.8090     4.2100    28.1420 ca         1 J20      -0.062000
     28 C30        -29.3990     3.0090    28.5720 ca         1 J20      -0.171750
     29 C31        -29.3730     2.6550    29.9360 ca         1 J20       0.137600
     30 O34        -29.9310     1.4880    30.4150 os         1 J20      -0.350100
     31 C38        -30.5650     0.5290    29.5500 c3         1 J20       0.148400
     32 C32        -28.7670     3.5200    30.8550 ca         1 J20      -0.171750
     33 C33        -28.1770     4.7200    30.4240 ca         1 J20      -0.062000
     34 C15        -26.1380     6.6940    29.2690 ca         1 J20      -0.104800
     35 C24        -25.3150     5.6640    29.7850 ca         1 J20      -0.062000
     36 C25        -24.0650     5.9490    30.3620 ca         1 J20      -0.171750
     37 C26        -23.6030     7.2780    30.4280 ca         1 J20       0.137600
     38 O35        -22.3850     7.6180    30.9800 os         1 J20      -0.350100
     39 C36        -21.4920     6.6340    31.5330 c3         1 J20       0.148400
     40 C27        -24.4000     8.3060    29.9080 ca         1 J20      -0.171750
     41 C28        -25.6480     8.0200    29.3300 ca         1 J20      -0.062000
     42 H1         -25.1270     4.3870    24.1770 h4         1 J20       0.002200
     43 H2         -26.2580     1.9620    28.9810 ha         1 J20       0.126500
     44 H3         -25.1450    -0.0100    29.9970 ha         1 J20       0.126000
     45 H4         -23.3080    -1.2660    30.0520 ho         1 J20       0.466000
     46 H5         -21.6410     0.7130    27.5760 ha         1 J20       0.126000
     47 H6         -22.7520     2.6920    26.5530 ha         1 J20       0.126500
     48 H7         -28.6940     8.7140    24.8730 ha         1 J20       0.124000
     49 H8         -27.3380     7.3840    23.2810 ha         1 J20       0.136000
     50 H9         -28.7930     7.4780    31.0550 ha         1 J20       0.123000
     51 H10        -30.1630     8.9590    32.0050 ho         1 J20       0.466000
     52 H11        -30.9320    10.5650    28.8950 ha         1 J20       0.133000
     53 H12        -29.9230     9.7820    26.7450 ha         1 J20       0.121000
     54 H13        -28.8640     4.4560    27.0850 ha         1 J20       0.121000
     55 H14        -29.8740     2.3710    27.8330 ha         1 J20       0.123500
     56 H15        -30.9330    -0.3250    30.1330 h1         1 J20       0.042533
     57 H16        -31.4200     0.9780    29.0290 h1         1 J20       0.042533
     58 H17        -29.8560     0.1500    28.8020 h1         1 J20       0.042533
     59 H18        -28.7540     3.2600    31.9100 ha         1 J20       0.123500
     60 H19        -27.7160     5.3710    31.1630 ha         1 J20       0.121000
     61 H20        -25.6320     4.6270    29.7370 ha         1 J20       0.121000
     62 H21        -23.4710     5.1240    30.7440 ha         1 J20       0.123500
     63 H22        -20.5850     7.1170    31.9170 h1         1 J20       0.042533
     64 H23        -21.9690     6.0970    32.3630 h1         1 J20       0.042533
     65 H24        -21.1920     5.9060    30.7680 h1         1 J20       0.042533
     66 H25        -24.0460     9.3320    29.9470 ha         1 J20       0.123500
     67 H26        -26.2310     8.8410    28.9200 ha         1 J20       0.121000
@<TRIPOS>BOND
     1     1     2 2   
     2     2     3 1   
     3     2    42 1   
     4     3     4 ar  
     5     3    17 ar  
     6     4     5 1   
     7     4    14 ar  
     8     5     6 3   
     9     6     7 1   
    10     7     8 ar  
    11     7    13 ar  
    12     8     9 ar  
    13     8    43 1   
    14     9    10 ar  
    15     9    44 1   
    16    10    11 1   
    17    10    12 ar  
    18    11    45 1   
    19    12    13 ar  
    20    12    46 1   
    21    13    47 1   
    22    14    15 ar  
    23    14    18 1   
    24    15    16 ar  
    25    15    25 1   
    26    16    17 ar  
    27    16    48 1   
    28    17    49 1   
    29    18    19 1   
    30    18    26 1   
    31    18    34 1   
    32    19    20 ar  
    33    19    25 ar  
    34    20    21 ar  
    35    20    50 1   
    36    21    22 1   
    37    21    23 ar  
    38    22    51 1   
    39    23    24 ar  
    40    23    52 1   
    41    24    25 ar  
    42    24    53 1   
    43    26    27 ar  
    44    26    33 ar  
    45    27    28 ar  
    46    27    54 1   
    47    28    29 ar  
    48    28    55 1   
    49    29    30 1   
    50    29    32 ar  
    51    30    31 1   
    52    31    56 1   
    53    31    57 1   
    54    31    58 1   
    55    32    33 ar  
    56    32    59 1   
    57    33    60 1   
    58    34    35 ar  
    59    34    41 ar  
    60    35    36 ar  
    61    35    61 1   
    62    36    37 ar  
    63    36    62 1   
    64    37    38 1   
    65    37    40 ar  
    66    38    39 1   
    67    39    63 1   
    68    39    64 1   
    69    39    65 1   
    70    40    41 ar  
    71    40    66 1   
    72    41    67 1   
@<TRIPOS>SUBSTRUCTURE
     1 J20         1 TEMP              0 ****  ****    0 ROOT
