@<TRIPOS>MOLECULE
J20
   67    72     1     0     0
SMALL
abcg2


@<TRIPOS>ATOM
      1 O41        -25.5050     5.7270    22.7030 o          1 J20      -0.529100
      2 C40        -25.6210     5.4470    23.8870 c          1 J20       0.581500
      3 C12        -26.4560     6.1780    24.8410 ca         1 J20      -0.189600
      4 C13        -26.5050     5.7690    26.2020 ca         1 J20       0.106000
      5 C16        -25.8080     4.6250    26.6650 cg         1 J20      -0.124000
      6 C17        -25.2960     3.6380    27.1390 ch         1 J20      -0.073000
      7 C18        -24.7450     2.5030    27.7820 ca         1 J20      -0.022000
      8 C19        -25.4090     1.9300    28.8800 ca         1 J20      -0.047000
      9 C20        -24.8710     0.8400    29.5410 ca         1 J20      -0.176500
     10 C21        -23.6550     0.3000    29.1190 ca         1 J20       0.146100
     11 O39        -23.0760    -0.7630    29.7370 oh         1 J20      -0.534100
     12 C22        -22.9870     0.8530    28.0250 ca         1 J20      -0.176500
     13 C23        -23.5280     1.9400    27.3640 ca         1 J20      -0.047000
     14 C8         -27.3030     6.5050    27.0800 ca         1 J20      -0.083300
     15 C7         -28.0630     7.5890    26.6160 cp         1 J20       0.008000
     16 C10        -28.0210     7.9800    25.2760 ca         1 J20      -0.107000
     17 C11        -27.2100     7.2750    24.4070 ca         1 J20      -0.047000
     18 C9         -27.4680     6.3410    28.6000 c5         1 J20       0.157200
     19 C5         -28.4860     7.4500    28.8960 ca         1 J20      -0.027300
     20 C6         -29.0460     7.7920    30.1120 ca         1 J20      -0.177000
     21 C1         -29.9540     8.8520    30.1540 ca         1 J20       0.144100
     22 O37        -30.5530     9.2430    31.3120 oh         1 J20      -0.535100
     23 C2         -30.2870     9.5610    28.9930 ca         1 J20      -0.146000
     24 C3         -29.7150     9.2150    27.7790 ca         1 J20      -0.042000
     25 C4         -28.8110     8.1550    27.7300 cp         1 J20      -0.096000
     26 C14        -28.0640     4.9950    29.0170 ca         1 J20      -0.104800
     27 C29        -28.6980     4.1630    28.1020 ca         1 J20      -0.062000
     28 C30        -29.2880     2.9610    28.4860 ca         1 J20      -0.171750
     29 C31        -29.2550     2.5720    29.8230 ca         1 J20       0.137600
     30 O34        -29.7850     1.4150    30.3030 os         1 J20      -0.350100
     31 C38        -30.3900     0.5160    29.3750 c3         1 J20       0.148400
     32 C32        -28.6410     3.4080    30.7600 ca         1 J20      -0.171750
     33 C33        -28.0600     4.5970    30.3580 ca         1 J20      -0.062000
     34 C15        -26.1110     6.6570    29.2580 ca         1 J20      -0.104800
     35 C24        -25.2490     5.6660    29.7110 ca         1 J20      -0.062000
     36 C25        -23.9880     5.9650    30.2210 ca         1 J20      -0.171750
     37 C26        -23.5620     7.2890    30.2780 ca         1 J20       0.137600
     38 O35        -22.3510     7.6900    30.7530 os         1 J20      -0.350100
     39 C36        -21.4430     6.6880    31.2090 c3         1 J20       0.148400
     40 C27        -24.4160     8.3000    29.8260 ca         1 J20      -0.171750
     41 C28        -25.6650     7.9820    29.3250 ca         1 J20      -0.062000
     42 H1         -25.0700     4.5890    24.3060 h4         1 J20       0.002200
     43 H2         -26.3510     2.3460    29.2090 ha         1 J20       0.126500
     44 H3         -25.3890     0.4050    30.3880 ha         1 J20       0.126000
     45 H4         -23.6210    -1.0610    30.4780 ho         1 J20       0.466000
     46 H5         -22.0460     0.4220    27.7060 ha         1 J20       0.126000
     47 H6         -23.0060     2.3700    26.5200 ha         1 J20       0.126500
     48 H7         -28.6080     8.8190    24.9250 ha         1 J20       0.124000
     49 H8         -27.1480     7.5550    23.3640 ha         1 J20       0.136000
     50 H9         -28.7970     7.2610    31.0220 ha         1 J20       0.123000
     51 H10        -30.2570     8.6850    32.0460 ho         1 J20       0.466000
     52 H11        -30.9950    10.3770    29.0630 ha         1 J20       0.133000
     53 H12        -29.9720     9.7670    26.8830 ha         1 J20       0.121000
     54 H13        -28.7360     4.4390    27.0580 ha         1 J20       0.121000
     55 H14        -29.7560     2.3420    27.7350 ha         1 J20       0.123500
     56 H15        -30.7260    -0.3360    29.9600 h1         1 J20       0.042533
     57 H16        -31.2460     0.9800    28.8780 h1         1 J20       0.042533
     58 H17        -29.6690     0.1850    28.6240 h1         1 J20       0.042533
     59 H18        -28.6200     3.1060    31.7990 ha         1 J20       0.123500
     60 H19        -27.5820     5.2160    31.1050 ha         1 J20       0.121000
     61 H20        -25.5490     4.6310    29.6740 ha         1 J20       0.121000
     62 H21        -23.3560     5.1580    30.5610 ha         1 J20       0.123500
     63 H22        -20.5490     7.2180    31.5280 h1         1 J20       0.042533
     64 H23        -21.8610     6.1330    32.0520 h1         1 J20       0.042533
     65 H24        -21.1910     5.9920    30.4050 h1         1 J20       0.042533
     66 H25        -24.0840     9.3290    29.8740 ha         1 J20       0.123500
     67 H26        -26.3030     8.7840    28.9770 ha         1 J20       0.121000
@<TRIPOS>BOND
     1     1     2 2   
     2     2     3 1   
     3     2    42 1   
     4     3     4 ar  
     5     3    17 ar  
     6     4     5 1   
     7     4    14 ar  
     8     5     6 3   
     9     6     7 1   
    10     7     8 ar  
    11     7    13 ar  
    12     8     9 ar  
    13     8    43 1   
    14     9    10 ar  
    15     9    44 1   
    16    10    11 1   
    17    10    12 ar  
    18    11    45 1   
    19    12    13 ar  
    20    12    46 1   
    21    13    47 1   
    22    14    15 ar  
    23    14    18 1   
    24    15    16 ar  
    25    15    25 1   
    26    16    17 ar  
    27    16    48 1   
    28    17    49 1   
    29    18    19 1   
    30    18    26 1   
    31    18    34 1   
    32    19    20 ar  
    33    19    25 ar  
    34    20    21 ar  
    35    20    50 1   
    36    21    22 1   
    37    21    23 ar  
    38    22    51 1   
    39    23    24 ar  
    40    23    52 1   
    41    24    25 ar  
    42    24    53 1   
    43    26    27 ar  
    44    26    33 ar  
    45    27    28 ar  
    46    27    54 1   
    47    28    29 ar  
    48    28    55 1   
    49    29    30 1   
    50    29    32 ar  
    51    30    31 1   
    52    31    56 1   
    53    31    57 1   
    54    31    58 1   
    55    32    33 ar  
    56    32    59 1   
    57    33    60 1   
    58    34    35 ar  
    59    34    41 ar  
    60    35    36 ar  
    61    35    61 1   
    62    36    37 ar  
    63    36    62 1   
    64    37    38 1   
    65    37    40 ar  
    66    38    39 1   
    67    39    63 1   
    68    39    64 1   
    69    39    65 1   
    70    40    41 ar  
    71    40    66 1   
    72    41    67 1   
@<TRIPOS>SUBSTRUCTURE
     1 J20         1 TEMP              0 ****  ****    0 ROOT
