@<TRIPOS>MOLECULE
J21
   66    66     1     0     0
SMALL
abcg2


@<TRIPOS>ATOM
      1 C1           7.6850     0.6270    -0.2580 c3         1 J21      -0.038300
      2 C2           8.4140     0.3800    -1.5810 c3         1 J21      -0.048400
      3 C3           8.9920    -1.0200    -1.7120 c3         1 J21      -0.198400
      4 C4           9.7390    -1.3110    -3.0260 c          1 J21       0.710000
      5 C5           5.8290    -0.3180     0.9950 c          1 J21       0.649100
      6 C6           3.8800    -1.3290     2.0410 c3         1 J21      -0.027300
      7 O1           6.0750     2.4010    -0.3150 o          1 J21      -0.761500
      8 O2           9.7080    -0.4440    -3.9210 o          1 J21      -0.776000
      9 O9          -6.3520     5.0410     2.0360 o          1 J21      -0.652100
     10 C21         -5.4150     4.4570     1.5040 c          1 J21       0.605100
     11 C22         -4.3990     5.1930     0.6640 c3         1 J21      -0.179100
     12 N3          -5.1910     3.1390     1.6350 ns         1 J21      -0.506900
     13 C20         -6.0380     2.2370     2.3760 c3         1 J21       0.095000
     14 C19         -6.5430     1.1210     1.4860 c3         1 J21       0.145600
     15 C18         -5.3940    -0.0500    -0.2590 ca         1 J21       0.184100
     16 C17         -6.5400    -0.5620    -0.8620 ca         1 J21      -0.180000
     17 C16         -6.4510    -1.0910    -2.1410 ca         1 J21       0.024100
     18 BR          -8.0110    -1.7760    -2.9500 br         1 J21      -0.120100
     19 C15         -5.2520    -1.1360    -2.8300 ca         1 J21      -0.125000
     20 C14         -4.1190    -0.6330    -2.2080 ca         1 J21      -0.058000
     21 C13         -4.1690    -0.0780    -0.9360 ca         1 J21      -0.159600
     22 C12         -2.9430     0.5480    -0.3420 c          1 J21       0.625700
     23 O7          -2.9460     1.6880     0.1110 o          1 J21      -0.633100
     24 N2          -1.8530    -0.2250    -0.3840 ns         1 J21      -0.478900
     25 C11         -0.5310     0.1970     0.0330 c3         1 J21       0.087000
     26 C10          0.2380    -0.9540     0.6630 c3         1 J21      -0.094400
     27 C8           2.4460    -1.6960     1.6540 c3         1 J21      -0.062400
     28 C7           4.5600    -2.5210     2.7590 c          1 J21       0.707000
     29 O6           4.0920    -2.8020     3.8820 o          1 J21      -0.740500
     30 O5           5.4820    -3.1070     2.1650 o          1 J21      -0.740500
     31 N1           4.5930    -0.8790     0.8680 ns         1 J21      -0.482900
     32 O4           6.2480     0.1230     2.0610 o          1 J21      -0.665100
     33 N            6.5650    -0.2820    -0.1510 ns         1 J21      -0.448900
     34 C            7.2750     2.1160    -0.1500 c          1 J21       0.713000
     35 O            8.2120     2.9130     0.0650 o          1 J21      -0.761500
     36 O3          10.3170    -2.4170    -3.0920 o          1 J21      -0.776000
     37 H1           8.3820     0.4110     0.5570 h1         1 J21       0.057700
     38 H2           7.7260     0.5790    -2.4100 hc         1 J21       0.034700
     39 H3           9.2120     1.1190    -1.6660 hc         1 J21       0.034700
     40 H4           9.6760    -1.2130    -0.8780 hc         1 J21       0.022200
     41 H5           8.1980    -1.7660    -1.6050 hc         1 J21       0.022200
     42 H6           3.8290    -0.4960     2.7480 h1         1 J21       0.062700
     43 H7          -3.7680     5.8000     1.3140 hc         1 J21       0.064033
     44 H8          -3.7550     4.5340     0.0850 hc         1 J21       0.064033
     45 H9          -4.9100     5.8700    -0.0190 hc         1 J21       0.064033
     46 H10         -5.4950     1.8190     3.2280 h1         1 J21       0.064200
     47 H11         -7.1780     0.4350     2.0530 h1         1 J21       0.041700
     48 H12         -7.1300     1.5380     0.6630 h1         1 J21       0.041700
     49 H13         -7.4820    -0.5630    -0.3300 ha         1 J21       0.128000
     50 H14         -5.1850    -1.5470    -3.8280 ha         1 J21       0.131000
     51 H15         -3.1820    -0.6500    -2.7510 ha         1 J21       0.133000
     52 H16          0.0230     0.5890    -0.8260 h1         1 J21       0.063200
     53 H17         -0.2960    -1.3020     1.5520 hc         1 J21       0.030200
     54 H18          0.2730    -1.7970    -0.0350 hc         1 J21       0.030200
     55 H19          2.1750    -0.1910     0.1340 hc         1 J21       0.053200
     56 H20          1.6350     0.2930     1.7270 hc         1 J21       0.053200
     57 H21          2.4620    -2.5480     0.9630 hc         1 J21       0.028200
     58 H22          1.9320    -2.0410     2.5530 hc         1 J21       0.028200
     59 H24          4.4440    -1.4370     0.0410 hn         1 J21       0.263500
     60 H25          6.0520    -0.4170    -1.0100 hn         1 J21       0.267500
     61 H28         -4.4020     2.7270     1.1510 hn         1 J21       0.365500
     62 H29         -6.8910     2.7840     2.7730 h1         1 J21       0.064200
     63 H30         -1.9400    -1.1540    -0.7640 hn         1 J21       0.310500
     64 H31         -0.6360     1.0130     0.7470 h1         1 J21       0.063200
     65 C9           1.6610    -0.5500     1.0290 c3         1 J21      -0.078400
     66 O8          -5.3950     0.4380     0.9880 os         1 J21      -0.341100
@<TRIPOS>BOND
     1     1     2 1   
     2     1    33 1   
     3     1    34 1   
     4     1    37 1   
     5     2     3 1   
     6     2    38 1   
     7     2    39 1   
     8     3     4 1   
     9     3    40 1   
    10     3    41 1   
    11     4     8 1   
    12     4    36 1   
    13     5    31 1   
    14     5    32 2   
    15     5    33 1   
    16     6    27 1   
    17     6    28 1   
    18     6    31 1   
    19     6    42 1   
    20     7    34 1   
    21     9    10 2   
    22    10    11 1   
    23    10    12 1   
    24    11    43 1   
    25    11    44 1   
    26    11    45 1   
    27    12    13 1   
    28    12    61 1   
    29    13    14 1   
    30    13    46 1   
    31    13    62 1   
    32    14    47 1   
    33    14    48 1   
    34    14    66 1   
    35    15    16 ar  
    36    15    21 ar  
    37    15    66 1   
    38    16    17 ar  
    39    16    49 1   
    40    17    18 1   
    41    17    19 ar  
    42    19    20 ar  
    43    19    50 1   
    44    20    21 ar  
    45    20    51 1   
    46    21    22 1   
    47    22    23 2   
    48    22    24 1   
    49    24    25 1   
    50    24    63 1   
    51    25    26 1   
    52    25    52 1   
    53    25    64 1   
    54    26    53 1   
    55    26    54 1   
    56    26    65 1   
    57    27    57 1   
    58    27    58 1   
    59    27    65 1   
    60    28    29 1   
    61    28    30 1   
    62    31    59 1   
    63    33    60 1   
    64    34    35 1   
    65    55    65 1   
    66    56    65 1   
@<TRIPOS>SUBSTRUCTURE
     1 J21         1 TEMP              0 ****  ****    0 ROOT
