@<TRIPOS>MOLECULE
J21
   66    66     1     0     0
SMALL
No Charge or Current Charge


@<TRIPOS>ATOM
      1 C1           6.7780     0.4000    -1.6980 c3         1 J21      -0.038300
      2 C2           8.2550     0.5040    -1.2290 c3         1 J21      -0.048400
      3 C3           8.4380     0.6850     0.3000 c3         1 J21      -0.198400
      4 C4           9.9260     0.8960     0.6360 c          1 J21       0.710000
      5 C5           5.2730    -0.7950    -0.0390 c          1 J21       0.649100
      6 C6           3.8740    -2.3890     1.3580 c3         1 J21      -0.027300
      7 O1           7.0530    -0.5880    -3.8730 o          1 J21      -0.761500
      8 O2          10.6170    -0.0880     0.8510 o          1 J21      -0.776000
      9 O9          -6.2430     5.0980     1.7670 o          1 J21      -0.652100
     10 C21         -5.0940     4.7670     2.0220 c          1 J21       0.605100
     11 C22         -3.8960     5.6560     1.7160 c3         1 J21      -0.179100
     12 N3          -4.7860     3.5650     2.6120 ns         1 J21      -0.506900
     13 C20         -5.7650     2.5150     2.9360 c3         1 J21       0.095000
     14 C19         -6.2700     1.7490     1.6930 c3         1 J21       0.145600
     15 C18         -5.2320     0.3940    -0.1080 ca         1 J21       0.184100
     16 C17         -6.4890     0.1580    -0.7120 ca         1 J21      -0.180000
     17 C16         -6.5790    -0.5790    -1.8990 ca         1 J21       0.024100
     18 Br          -8.2870    -0.8890    -2.7010 br         1 J21      -0.120100
     19 C15         -5.4230    -1.0900    -2.4980 ca         1 J21      -0.125000
     20 C14         -4.1690    -0.8630    -1.9110 ca         1 J21      -0.058000
     21 C13         -4.0520    -0.1200    -0.7080 ca         1 J21      -0.159600
     22 C12         -2.6860     0.1050    -0.0880 c          1 J21       0.625700
     23 O7          -2.5040     0.2860     1.1090 o          1 J21      -0.633100
     24 N2          -1.6190     0.0370    -0.9620 ns         1 J21      -0.478900
     25 C11         -0.2080     0.1420    -0.5770 c3         1 J21       0.087000
     26 C10          0.3450    -1.1940    -0.0380 c3         1 J21      -0.094400
     27 C8           2.3970    -2.4500     0.8870 c3         1 J21      -0.062400
     28 C7           4.3050    -3.7220     2.0500 c          1 J21       0.707000
     29 O6           4.5450    -3.7000     3.2490 o          1 J21      -0.740500
     30 O5           4.4590    -4.7210     1.3580 o          1 J21      -0.740500
     31 N1           4.8040    -2.0520     0.2510 ns         1 J21      -0.482900
     32 O4           4.9890     0.2020     0.6060 o          1 J21      -0.665100
     33 N            6.0920    -0.7920    -1.1400 ns         1 J21      -0.448900
     34 C            6.6770     0.4010    -3.2570 c          1 J21       0.713000
     35 O            6.1540     1.3630    -3.8030 o          1 J21      -0.761500
     36 O3          10.3660     2.0350     0.6270 o          1 J21      -0.776000
     37 H1           6.2490     1.2960    -1.3510 h1         1 J21       0.057700
     38 H2           8.8030    -0.3890    -1.5560 hc         1 J21       0.034700
     39 H3           8.7170     1.3580    -1.7400 hc         1 J21       0.034700
     40 H4           7.8570     1.5750     0.5690 hc         1 J21       0.022200
     41 H5           8.0730    -0.2390     0.7640 hc         1 J21       0.022200
     42 H6           3.9520    -1.6050     2.1230 h1         1 J21       0.062700
     43 H7          -3.3240     5.8140     2.6370 hc         1 J21       0.064033
     44 H8          -3.1880     5.0990     1.0930 hc         1 J21       0.064033
     45 H9          -4.1840     6.6060     1.2510 hc         1 J21       0.064033
     46 H10         -5.3010     1.8030     3.6310 h1         1 J21       0.064200
     47 H11         -6.9860     0.9800     2.0120 h1         1 J21       0.041700
     48 H12         -6.7820     2.4450     1.0160 h1         1 J21       0.041700
     49 H13         -7.4060     0.5430    -0.2770 ha         1 J21       0.128000
     50 H14         -5.4970    -1.6670    -3.4170 ha         1 J21       0.131000
     51 H15         -3.2940    -1.2960    -2.3920 ha         1 J21       0.133000
     52 H16          0.3720     0.4480    -1.4580 h1         1 J21       0.063200
     53 H17         -0.2390    -1.5000     0.8390 hc         1 J21       0.030200
     54 H18          0.2120    -1.9710    -0.8000 hc         1 J21       0.030200
     55 H19          2.4150    -0.8020    -0.5300 hc         1 J21       0.053200
     56 H20          1.9710    -0.3340     1.1120 hc         1 J21       0.053200
     57 H21          2.2960    -3.2210     0.1120 hc         1 J21       0.028200
     58 H22          1.7780    -2.7730     1.7330 hc         1 J21       0.028200
     59 H24          5.1220    -2.8090    -0.3410 hn         1 J21       0.263500
     60 H25          6.2360    -1.6780    -1.6060 hn         1 J21       0.267500
     61 H28         -3.8030     3.3720     2.7650 hn         1 J21       0.365500
     62 H29         -6.6210     2.9710     3.4500 h1         1 J21       0.064200
     63 H30         -1.8410    -0.0880    -1.9410 hn         1 J21       0.310500
     64 H31         -0.0980     0.9240     0.1850 h1         1 J21       0.063200
     65 C9           1.8370    -1.1120     0.3500 c3         1 J21      -0.078400
     66 O8          -5.1320     1.1500     1.0450 os         1 J21      -0.341100
@<TRIPOS>BOND
     1     1     2 1   
     2     1    33 1   
     3     1    34 1   
     4     1    37 1   
     5     2     3 1   
     6     2    38 1   
     7     2    39 1   
     8     3     4 1   
     9     3    40 1   
    10     3    41 1   
    11     4     8 1   
    12     4    36 1   
    13     5    31 1   
    14     5    32 2   
    15     5    33 1   
    16     6    27 1   
    17     6    28 1   
    18     6    31 1   
    19     6    42 1   
    20     7    34 1   
    21     9    10 2   
    22    10    11 1   
    23    10    12 1   
    24    11    43 1   
    25    11    44 1   
    26    11    45 1   
    27    12    13 1   
    28    12    61 1   
    29    13    14 1   
    30    13    46 1   
    31    13    62 1   
    32    14    47 1   
    33    14    48 1   
    34    14    66 1   
    35    15    16 ar  
    36    15    21 ar  
    37    15    66 1   
    38    16    17 ar  
    39    16    49 1   
    40    17    18 1   
    41    17    19 ar  
    42    19    20 ar  
    43    19    50 1   
    44    20    21 ar  
    45    20    51 1   
    46    21    22 1   
    47    22    23 2   
    48    22    24 1   
    49    24    25 1   
    50    24    63 1   
    51    25    26 1   
    52    25    52 1   
    53    25    64 1   
    54    26    53 1   
    55    26    54 1   
    56    26    65 1   
    57    27    57 1   
    58    27    58 1   
    59    27    65 1   
    60    28    29 1   
    61    28    30 1   
    62    31    59 1   
    63    33    60 1   
    64    34    35 1   
    65    55    65 1   
    66    56    65 1   
@<TRIPOS>SUBSTRUCTURE
     1 J21         1 TEMP              0 ****  ****    0 ROOT
