@<TRIPOS>MOLECULE
J24
   51    54     1     0     0
SMALL
No Charge or Current Charge


@<TRIPOS>ATOM
      1 O1          -1.7970    -2.0720     0.4420 o          1 J24      -0.503000
      2 C2          -0.9030    -1.3330     0.8340 c          1 J24       0.665300
      3 O3          -0.0750    -1.7080     1.8590 os         1 J24      -0.433100
      4 C4          -0.1480    -3.0610     2.3400 c3         1 J24       0.164600
      5 C5           0.8670    -3.2020     3.4860 c3         1 J24      -0.097100
      6 C6          -0.8370     0.1180     0.5060 cc         1 J24      -0.174400
      7 C7           0.1160     1.1430     0.9680 ca         1 J24      -0.022800
      8 C8           1.4890     1.1040     1.3380 ca         1 J24      -0.067300
      9 C9           2.0980     2.3380     1.7080 ca         1 J24       0.122100
     10 O10          3.3970     2.3790     2.1310 oh         1 J24      -0.537100
     11 C11          1.3920     3.5580     1.6150 ca         1 J24      -0.184000
     12 C12          0.0810     3.5850     1.1090 ca         1 J24      -0.058000
     13 C13         -0.5090     2.3620     0.7890 ca         1 J24       0.014100
     14 O14         -1.7010     2.1840     0.1710 os         1 J24      -0.162200
     15 C15         -1.8820     0.8460    -0.0620 cd         1 J24       0.156900
     16 C16         -2.9840     0.4950    -0.9860 ca         1 J24      -0.066800
     17 C17         -4.1180     1.3340    -1.0730 ca         1 J24      -0.064500
     18 C18         -5.1680     1.0360    -1.9590 ca         1 J24      -0.120500
     19 C19         -5.0910    -0.0960    -2.7860 ca         1 J24      -0.089000
     20 C20         -3.9570    -0.9200    -2.7340 ca         1 J24      -0.120500
     21 C21         -2.9080    -0.6240    -1.8450 ca         1 J24      -0.064500
     22 C22          2.3460    -0.1680     1.2290 c3         1 J24       0.222100
     23 N23          2.1660    -0.9070    -0.0510 n3         1 J24      -0.717600
     24 C24          2.8720    -2.2230    -0.0690 c6         1 J24       0.124800
     25 C25          2.6200    -2.9870    -1.4030 c6         1 J24       0.151100
     26 O26          2.9930    -2.1630    -2.5340 os         1 J24      -0.451000
     27 C27          2.2700    -0.9080    -2.5730 c6         1 J24       0.151100
     28 C28          2.5120    -0.1010    -1.2630 c6         1 J24       0.124800
     29 H1          -1.1540    -3.2890     2.7170 h1         1 J24       0.045700
     30 H2           0.0970    -3.7740     1.5410 h1         1 J24       0.045700
     31 H3           0.8300    -4.2160     3.9000 hc         1 J24       0.044700
     32 H4           1.8860    -3.0160     3.1280 hc         1 J24       0.044700
     33 H5           0.6420    -2.4930     4.2910 hc         1 J24       0.044700
     34 H6           3.6320     3.3110     2.3280 ho         1 J24       0.465000
     35 H7           1.8750     4.4960     1.8820 ha         1 J24       0.117000
     36 H8          -0.4500     4.5210     0.9570 ha         1 J24       0.134000
     37 H9          -4.1980     2.2150    -0.4390 ha         1 J24       0.130500
     38 H10         -6.0400     1.6840    -2.0050 ha         1 J24       0.117500
     39 H11         -5.9020    -0.3250    -3.4750 ha         1 J24       0.114000
     40 H12         -3.8840    -1.7850    -3.3900 ha         1 J24       0.117500
     41 H13         -2.0190    -1.2490    -1.8620 ha         1 J24       0.130500
     42 H14          3.4080     0.0900     1.3260 h1         1 J24       0.053200
     43 H15          2.1260    -0.8100     2.0890 h1         1 J24       0.053200
     44 H17          3.9550    -2.0780     0.0560 h1         1 J24       0.040700
     45 H18          2.5310    -2.8510     0.7660 h1         1 J24       0.040700
     46 H19          3.2110    -3.9140    -1.4210 h1         1 J24       0.053700
     47 H20          1.5570    -3.2560    -1.4850 h1         1 J24       0.053700
     48 H21          2.6060    -0.3240    -3.4410 h1         1 J24       0.053700
     49 H22          1.1960    -1.1120    -2.6930 h1         1 J24       0.053700
     50 H23          1.9080     0.8170    -1.3050 h1         1 J24       0.040700
     51 H24          3.5670     0.2080    -1.2280 h1         1 J24       0.040700
@<TRIPOS>BOND
     1     1     2 2   
     2     2     3 1   
     3     2     6 1   
     4     3     4 1   
     5     4     5 1   
     6     4    29 1   
     7     4    30 1   
     8     5    31 1   
     9     5    32 1   
    10     5    33 1   
    11     6     7 1   
    12     6    15 2   
    13     7     8 ar  
    14     7    13 ar  
    15     8     9 ar  
    16     8    22 1   
    17     9    10 1   
    18     9    11 ar  
    19    10    34 1   
    20    11    12 ar  
    21    11    35 1   
    22    12    13 ar  
    23    12    36 1   
    24    13    14 1   
    25    14    15 1   
    26    15    16 1   
    27    16    17 ar  
    28    16    21 ar  
    29    17    18 ar  
    30    17    37 1   
    31    18    19 ar  
    32    18    38 1   
    33    19    20 ar  
    34    19    39 1   
    35    20    21 ar  
    36    20    40 1   
    37    21    41 1   
    38    22    23 1   
    39    22    42 1   
    40    22    43 1   
    41    23    24 1   
    42    23    28 1   
    43    24    25 1   
    44    24    44 1   
    45    24    45 1   
    46    25    26 1   
    47    25    46 1   
    48    25    47 1   
    49    26    27 1   
    50    27    28 1   
    51    27    48 1   
    52    27    49 1   
    53    28    50 1   
    54    28    51 1   
@<TRIPOS>SUBSTRUCTURE
     1 J24         1 TEMP              0 ****  ****    0 ROOT
