@<TRIPOS>MOLECULE
J24
   51    54     1     0     0
SMALL
bcc


@<TRIPOS>ATOM
      1 O1          -0.8580    -2.0520    -0.5920 o          1 J24      -0.552000
      2 C2          -0.5540    -1.2530     0.2600 c          1 J24       0.714300
      3 O3          -0.2580    -1.5860     1.5090 os         1 J24      -0.409900
      4 C4          -0.2480    -2.9820     1.8410 c3         1 J24       0.141400
      5 C5           0.2110    -3.1150     3.2720 c3         1 J24      -0.097100
      6 C6          -0.5970     0.2110     0.1040 cc         1 J24      -0.174400
      7 C7           0.3110     1.2020     0.6330 ca         1 J24      -0.022800
      8 C8           1.6130     1.1820     1.1550 ca         1 J24      -0.067300
      9 C9           2.1490     2.4100     1.5420 ca         1 J24       0.122100
     10 O10          3.3900     2.4150     2.0800 oh         1 J24      -0.498100
     11 C11          1.4460     3.6130     1.3730 ca         1 J24      -0.202000
     12 C12          0.1890     3.6390     0.8010 ca         1 J24      -0.076000
     13 C13         -0.3430     2.4170     0.4440 ca         1 J24       0.014100
     14 O14         -1.5420     2.2220    -0.1540 os         1 J24      -0.162200
     15 C15         -1.6820     0.8950    -0.3650 cd         1 J24       0.156900
     16 C16         -2.9540     0.4950    -0.9610 ca         1 J24      -0.066800
     17 C17         -4.1390     1.0850    -0.5100 ca         1 J24      -0.082500
     18 C18         -5.3540     0.7360    -1.0770 ca         1 J24      -0.138500
     19 C19         -5.4020    -0.1970    -2.1050 ca         1 J24      -0.107000
     20 C20         -4.2280    -0.7770    -2.5660 ca         1 J24      -0.138500
     21 C21         -3.0090    -0.4340    -2.0010 ca         1 J24      -0.082500
     22 C22          2.4250    -0.0810     1.2250 c3         1 J24       0.222100
     23 N23          2.2610    -0.8910     0.0330 n3         1 J24      -0.717600
     24 C24          2.9500    -2.1610     0.1690 c6         1 J24       0.124800
     25 C25          2.7250    -3.0190    -1.0620 c6         1 J24       0.127900
     26 O26          3.1360    -2.3580    -2.2380 os         1 J24      -0.404600
     27 C27          2.4780    -1.1170    -2.3740 c6         1 J24       0.127900
     28 C28          2.7160    -0.2220    -1.1730 c6         1 J24       0.124800
     29 H1          -1.2520    -3.3920     1.7140 h1         1 J24       0.045700
     30 H2           0.4170    -3.5220     1.1650 h1         1 J24       0.045700
     31 H3           0.2120    -4.1690     3.5490 hc         1 J24       0.044700
     32 H4           1.2250    -2.7350     3.4080 hc         1 J24       0.044700
     33 H5          -0.4510    -2.5890     3.9590 hc         1 J24       0.044700
     34 H6           3.6830     3.3200     2.2360 ho         1 J24       0.426000
     35 H7           1.9070     4.5460     1.6770 ha         1 J24       0.135000
     36 H8          -0.3390     4.5690     0.6410 ha         1 J24       0.152000
     37 H9          -4.1150     1.8090     0.2940 ha         1 J24       0.148500
     38 H10         -6.2650     1.1930    -0.7140 ha         1 J24       0.135500
     39 H11         -6.3520    -0.4650    -2.5500 ha         1 J24       0.132000
     40 H12         -4.2570    -1.4930    -3.3760 ha         1 J24       0.135500
     41 H13         -2.0980    -0.8740    -2.3790 ha         1 J24       0.148500
     42 H14          3.4830     0.1610     1.3970 h1         1 J24       0.053200
     43 H15          2.1080    -0.6780     2.0850 h1         1 J24       0.053200
     44 H17          4.0330    -2.0180     0.3290 h1         1 J24       0.040700
     45 H18          2.5700    -2.6920     1.0460 h1         1 J24       0.040700
     46 H19          3.3080    -3.9390    -0.9850 h1         1 J24       0.053700
     47 H20          1.6640    -3.2940    -1.1260 h1         1 J24       0.053700
     48 H21          2.8640    -0.6420    -3.2770 h1         1 J24       0.053700
     49 H22          1.3970    -1.2660    -2.5030 h1         1 J24       0.053700
     50 H23          2.1610     0.7060    -1.3210 h1         1 J24       0.040700
     51 H24          3.7850     0.0450    -1.1110 h1         1 J24       0.040700
@<TRIPOS>BOND
     1     1     2 2   
     2     2     3 1   
     3     2     6 1   
     4     3     4 1   
     5     4     5 1   
     6     4    29 1   
     7     4    30 1   
     8     5    31 1   
     9     5    32 1   
    10     5    33 1   
    11     6     7 1   
    12     6    15 2   
    13     7     8 ar  
    14     7    13 ar  
    15     8     9 ar  
    16     8    22 1   
    17     9    10 1   
    18     9    11 ar  
    19    10    34 1   
    20    11    12 ar  
    21    11    35 1   
    22    12    13 ar  
    23    12    36 1   
    24    13    14 1   
    25    14    15 1   
    26    15    16 1   
    27    16    17 ar  
    28    16    21 ar  
    29    17    18 ar  
    30    17    37 1   
    31    18    19 ar  
    32    18    38 1   
    33    19    20 ar  
    34    19    39 1   
    35    20    21 ar  
    36    20    40 1   
    37    21    41 1   
    38    22    23 1   
    39    22    42 1   
    40    22    43 1   
    41    23    24 1   
    42    23    28 1   
    43    24    25 1   
    44    24    44 1   
    45    24    45 1   
    46    25    26 1   
    47    25    46 1   
    48    25    47 1   
    49    26    27 1   
    50    27    28 1   
    51    27    48 1   
    52    27    49 1   
    53    28    50 1   
    54    28    51 1   
@<TRIPOS>SUBSTRUCTURE
     1 J24         1 TEMP              0 ****  ****    0 ROOT
