@<TRIPOS>MOLECULE
J25
   50    52     1     0     0
SMALL
abcg2


@<TRIPOS>ATOM
      1 C1           1.5850    -1.0200    -0.7800 cc         1 J25      -0.007300
      2 C2           0.2760    -1.4540    -0.3620 cc         1 J25      -0.250600
      3 C3          -0.6550    -0.4350    -0.4470 cd         1 J25      -0.000400
      4 S4           0.0440     1.0400    -0.9890 ss         1 J25       0.324000
      5 C5           1.5960     0.2910    -1.1240 cd         1 J25      -0.317300
      6 C6           2.7950     1.0630    -1.5910 c6         1 J25       0.185300
      7 N7           3.9850     0.2920    -1.2950 n          1 J25      -0.387800
      8 C8           3.8790    -1.0920    -1.7210 c6         1 J25       0.099000
      9 C9           2.8390    -1.8420    -0.8960 c6         1 J25      -0.042100
     10 N10         -1.9860    -0.5350    -0.1380 ns         1 J25      -0.385100
     11 C11         -2.8850     0.4810    -0.2240 c          1 J25       0.597100
     12 C12         -4.2940     0.0800     0.1620 c3         1 J25      -0.076100
     13 C13         -5.2710     1.1980     0.0730 cc         1 J25      -0.215300
     14 C14         -6.2500     1.3770    -0.8580 cd         1 J25      -0.117000
     15 C15         -7.0050     2.5640    -0.6510 cd         1 J25      -0.133000
     16 C16         -6.5830     3.2660     0.4350 cc         1 J25      -0.236000
     17 S17         -5.2670     2.4890     1.2110 ss         1 J25       0.227000
     18 O18         -2.5630     1.5970    -0.5790 o          1 J25      -0.559100
     19 C19         -0.1100    -2.7750     0.1320 c          1 J25       0.647700
     20 O20          0.9080    -3.6000     0.2750 os         1 J25      -0.433100
     21 C21          0.6480    -4.9300     0.7540 c3         1 J25       0.167600
     22 C22          1.9670    -5.6620     0.8070 c3         1 J25      -0.099100
     23 O23         -1.2560    -3.0890     0.4030 o          1 J25      -0.550000
     24 C24          4.8870     0.6220    -0.3370 c          1 J25       0.644100
     25 O25          4.7430     1.8750     0.0880 os         1 J25      -0.460100
     26 C26          5.6570     2.3450     1.0870 c3         1 J25       0.184600
     27 C27          5.2540     3.7550     1.4460 c3         1 J25      -0.100100
     28 O28          5.7530    -0.1280     0.0670 o          1 J25      -0.543000
     29 H6           2.7410     1.2360    -2.6710 h1         1 J25       0.068700
     30 H6A          2.8410     2.0420    -1.1220 h1         1 J25       0.068700
     31 H8           3.5840    -1.0890    -2.7730 h1         1 J25       0.065700
     32 H8A          4.8480    -1.5790    -1.6600 h1         1 J25       0.065700
     33 H9           3.2390    -2.0740     0.0950 hc         1 J25       0.071200
     34 H9A          2.6340    -2.7970    -1.3790 hc         1 J25       0.071200
     35 HN10        -2.2840    -1.4620     0.1520 hn         1 J25       0.368500
     36 H12         -4.6160    -0.7290    -0.4990 hc         1 J25       0.078200
     37 H12A        -4.2680    -0.3520     1.1670 hc         1 J25       0.078200
     38 H14         -6.4270     0.6770    -1.6640 ha         1 J25       0.132000
     39 H15         -7.8240     2.8790    -1.2820 ha         1 J25       0.135000
     40 H16         -6.9730     4.1950     0.8210 h4         1 J25       0.151000
     41 H21          0.1890    -4.8780     1.7430 h1         1 J25       0.049200
     42 H21A        -0.0510    -5.4320     0.0830 h1         1 J25       0.049200
     43 H22          2.4280    -5.7320    -0.1780 hc         1 J25       0.048033
     44 H22A         2.6680    -5.1780     1.4870 hc         1 J25       0.048033
     45 H22B         1.7960    -6.6760     1.1690 hc         1 J25       0.048033
     46 H26          5.6150     1.6970     1.9640 h1         1 J25       0.049200
     47 H26A         6.6760     2.3200     0.6980 h1         1 J25       0.049200
     48 H27          5.3170     4.4230     0.5870 hc         1 J25       0.046700
     49 H27A         4.2390     3.7920     1.8430 hc         1 J25       0.046700
     50 H27B         5.9270     4.1340     2.2140 hc         1 J25       0.046700
@<TRIPOS>BOND
     1     1     2 1   
     2     1     5 2   
     3     1     9 1   
     4     2     3 2   
     5     2    19 1   
     6     3     4 1   
     7     3    10 1   
     8     4     5 1   
     9     5     6 1   
    10     6     7 1   
    11     6    29 1   
    12     6    30 1   
    13     7     8 1   
    14     7    24 1   
    15     8     9 1   
    16     8    31 1   
    17     8    32 1   
    18     9    33 1   
    19     9    34 1   
    20    10    11 1   
    21    10    35 1   
    22    11    12 1   
    23    11    18 2   
    24    12    13 1   
    25    12    36 1   
    26    12    37 1   
    27    13    14 2   
    28    13    17 1   
    29    14    15 1   
    30    14    38 1   
    31    15    16 2   
    32    15    39 1   
    33    16    17 1   
    34    16    40 1   
    35    19    20 1   
    36    19    23 2   
    37    20    21 1   
    38    21    22 1   
    39    21    41 1   
    40    21    42 1   
    41    22    43 1   
    42    22    44 1   
    43    22    45 1   
    44    24    25 1   
    45    24    28 2   
    46    25    26 1   
    47    26    27 1   
    48    26    46 1   
    49    26    47 1   
    50    27    48 1   
    51    27    49 1   
    52    27    50 1   
@<TRIPOS>SUBSTRUCTURE
     1 J25         1 TEMP              0 ****  ****    0 ROOT
