@<TRIPOS>MOLECULE
J25
   50    52     1     0     0
SMALL
No Charge or Current Charge


@<TRIPOS>ATOM
      1 C1           1.4970    -0.9350    -0.7680 cc         1 J25      -0.007300
      2 C2           0.0950    -1.2730    -0.7280 cc         1 J25      -0.250600
      3 C3          -0.6880    -0.2450    -1.2310 cd         1 J25      -0.000400
      4 S4           0.2710     1.1680    -1.7320 ss         1 J25       0.324000
      5 C5           1.7440     0.3290    -1.2470 cd         1 J25      -0.317300
      6 C6           3.1110     0.9770    -1.3390 c6         1 J25       0.185300
      7 N7           4.1230     0.1580    -0.6200 n          1 J25      -0.387800
      8 C8           3.9880    -1.3020    -0.8400 c6         1 J25       0.099000
      9 C9           2.6330    -1.8360    -0.3230 c6         1 J25      -0.042100
     10 N10         -2.0740    -0.3270    -1.3070 ns         1 J25      -0.385100
     11 C11         -2.9900     0.6100    -1.7490 c          1 J25       0.597100
     12 C12         -4.4580     0.1620    -1.6600 c3         1 J25      -0.076100
     13 C13         -5.1860     0.7050    -0.4520 cc         1 J25      -0.215300
     14 C14         -6.2610     1.5570    -0.4300 cd         1 J25      -0.117000
     15 C15         -6.7070     1.8770     0.8800 cd         1 J25      -0.133000
     16 C16         -5.9760     1.2720     1.8700 cc         1 J25      -0.236000
     17 S17         -4.6960     0.2730     1.1890 ss         1 J25       0.227000
     18 O18         -2.6750     1.7180    -2.1610 o          1 J25      -0.559100
     19 C19         -0.4960    -2.5500    -0.1980 c          1 J25       0.647700
     20 O20          0.3960    -3.4310     0.3480 os         1 J25      -0.433100
     21 C21         -0.0970    -4.6700     0.8830 c3         1 J25       0.167600
     22 C22          1.1140    -5.4500     1.4180 c3         1 J25      -0.099100
     23 O23         -1.6980    -2.7940    -0.2310 o          1 J25      -0.550000
     24 C24          5.1570     0.7040     0.1650 c          1 J25       0.644100
     25 O25          5.1340     2.0720     0.1790 os         1 J25      -0.460100
     26 C26          6.1400     2.7550     0.9450 c3         1 J25       0.184600
     27 C27          5.8870     4.2630     0.7950 c3         1 J25      -0.100100
     28 O28          5.9840     0.0260     0.7580 o          1 J25      -0.543000
     29 H6           3.4140     1.0760    -2.3920 h1         1 J25       0.068700
     30 H6A          3.0510     1.9900    -0.9190 h1         1 J25       0.068700
     31 H8           4.0610    -1.4980    -1.9190 h1         1 J25       0.065700
     32 H8A          4.8070    -1.8540    -0.3580 h1         1 J25       0.065700
     33 H9           2.6610    -1.9000     0.7730 hc         1 J25       0.071200
     34 H9A          2.5170    -2.8570    -0.7060 hc         1 J25       0.071200
     35 HN10        -2.4980    -1.1930    -0.9860 hn         1 J25       0.368500
     36 H12         -4.9700     0.5030    -2.5670 hc         1 J25       0.078200
     37 H12A        -4.5020    -0.9330    -1.6150 hc         1 J25       0.078200
     38 H14         -6.7280     1.9520    -1.3280 ha         1 J25       0.132000
     39 H15         -7.5460     2.5380     1.0780 ha         1 J25       0.135000
     40 H16         -6.0910     1.3350     2.9440 h4         1 J25       0.151000
     41 H21         -0.8080    -4.4890     1.7000 h1         1 J25       0.049200
     42 H21A        -0.5990    -5.2610     0.1050 h1         1 J25       0.049200
     43 H22          1.8300    -5.6520     0.6130 hc         1 J25       0.048033
     44 H22A         1.6220    -4.8810     2.2060 hc         1 J25       0.048033
     45 H22B         0.7910    -6.4090     1.8400 hc         1 J25       0.048033
     46 H26          6.0810     2.4770     2.0060 h1         1 J25       0.049200
     47 H26A         7.1460     2.5130     0.5760 h1         1 J25       0.049200
     48 H27          5.9560     4.5630    -0.2570 hc         1 J25       0.046700
     49 H27A         4.8920     4.5270     1.1710 hc         1 J25       0.046700
     50 H27B         6.6320     4.8310     1.3640 hc         1 J25       0.046700
@<TRIPOS>BOND
     1     1     2 1   
     2     1     5 2   
     3     1     9 1   
     4     2     3 2   
     5     2    19 1   
     6     3     4 1   
     7     3    10 1   
     8     4     5 1   
     9     5     6 1   
    10     6     7 1   
    11     6    29 1   
    12     6    30 1   
    13     7     8 1   
    14     7    24 1   
    15     8     9 1   
    16     8    31 1   
    17     8    32 1   
    18     9    33 1   
    19     9    34 1   
    20    10    11 1   
    21    10    35 1   
    22    11    12 1   
    23    11    18 2   
    24    12    13 1   
    25    12    36 1   
    26    12    37 1   
    27    13    14 2   
    28    13    17 1   
    29    14    15 1   
    30    14    38 1   
    31    15    16 2   
    32    15    39 1   
    33    16    17 1   
    34    16    40 1   
    35    19    20 1   
    36    19    23 2   
    37    20    21 1   
    38    21    22 1   
    39    21    41 1   
    40    21    42 1   
    41    22    43 1   
    42    22    44 1   
    43    22    45 1   
    44    24    25 1   
    45    24    28 2   
    46    25    26 1   
    47    26    27 1   
    48    26    46 1   
    49    26    47 1   
    50    27    48 1   
    51    27    49 1   
    52    27    50 1   
@<TRIPOS>SUBSTRUCTURE
     1 J25         1 TEMP              0 ****  ****    0 ROOT
