@<TRIPOS>MOLECULE
J26
   63    66     1     0     0
SMALL
No Charge or Current Charge


@<TRIPOS>ATOM
      1 C12        -33.4670   -23.9320    39.5300 cx         1 J26      -0.130400
      2 C13        -34.7530   -24.7170    39.6600 cx         1 J26      -0.130400
      3 C14        -38.6220   -22.1720    42.1520 c          1 J26       0.594100
      4 C17        -40.5150   -23.8520    41.6890 ca         1 J26       0.011000
      5 C18        -40.8200   -24.9560    40.8700 ca         1 J26      -0.161500
      6 C19        -42.0680   -25.5970    40.9600 ca         1 J26      -0.041000
      7 C20        -43.0320   -25.1380    41.8760 ca         1 J26      -0.055000
      8 C23        -42.7360   -24.0370    42.7000 ca         1 J26      -0.041000
      9 C01        -34.0520   -14.9800    41.7970 c6         1 J26      -0.017100
     10 C02        -34.8080   -16.2510    42.1010 cc         1 J26      -0.086300
     11 C04        -35.7150   -18.3430    41.8980 cc         1 J26      -0.266600
     12 C08        -37.1700   -21.9030    41.6570 c3         1 J26       0.040700
     13 C09        -36.1850   -22.9790    42.1980 c3         1 J26      -0.085400
     14 C10        -34.7540   -22.9280    41.6080 c3         1 J26      -0.044400
     15 C11        -34.6930   -23.2800    40.1240 cx         1 J26      -0.133700
     16 C21        -44.3080   -25.7910    41.9710 cg         1 J26       0.331000
     17 C24        -41.4860   -23.3970    42.6080 ca         1 J26      -0.161500
     18 C25        -35.9710   -17.8820    43.1860 cd         1 J26      -0.015300
     19 C26        -36.7260   -18.5970    44.2910 c3         1 J26      -0.042800
     20 C27        -35.3940   -16.5780    43.2940 cd         1 J26      -0.269600
     21 C28        -35.3280   -15.6300    44.4500 c          1 J26       0.618700
     22 C30        -34.6870   -14.2620    44.1450 c6         1 J26      -0.175400
     23 C31        -33.5280   -14.3190    43.1070 c6         1 J26      -0.032000
     24 C32        -33.0180   -12.8780    42.8060 c3         1 J26      -0.088100
     25 C33        -32.3210   -15.1220    43.6860 c3         1 J26      -0.088100
     26 N03        -35.0130   -17.3230    41.2510 na         1 J26      -0.055000
     27 N07        -36.7380   -20.5450    42.0630 ns         1 J26      -0.480900
     28 N22        -45.3420   -26.3290    42.0450 n1         1 J26      -0.460000
     29 O06        -35.7940   -19.8940    40.1080 o          1 J26      -0.629100
     30 O15        -39.1610   -21.4690    43.0020 o          1 J26      -0.560100
     31 O29        -35.7190   -15.8900    45.5800 o          1 J26      -0.543100
     32 H1         -32.6470   -24.1890    40.1970 hc         1 J26       0.071950
     33 H2         -33.1610   -23.6220    38.5340 hc         1 J26       0.071950
     34 H3         -35.3110   -24.9330    38.7520 hc         1 J26       0.071950
     35 H4         -34.7940   -25.4980    40.4160 hc         1 J26       0.071950
     36 H5         -40.0860   -25.3240    40.1560 ha         1 J26       0.135000
     37 H6         -42.2830   -26.4490    40.3170 ha         1 J26       0.126000
     38 H7         -43.4730   -23.6730    43.4130 ha         1 J26       0.126000
     39 H8         -33.2160   -15.1760    41.1110 hc         1 J26       0.059200
     40 H9         -34.7170   -14.2820    41.2690 hc         1 J26       0.059200
     41 H10        -37.2030   -21.9610    40.5620 h1         1 J26       0.079700
     42 H11        -36.1180   -22.8780    43.2880 hc         1 J26       0.057700
     43 H12        -36.5950   -23.9790    42.0100 hc         1 J26       0.057700
     44 H13        -34.1280   -23.6280    42.1760 hc         1 J26       0.047700
     45 H14        -34.3190   -21.9360    41.7730 hc         1 J26       0.047700
     46 H15        -35.1940   -22.5460    39.4970 hc         1 J26       0.081700
     47 H16        -41.2970   -22.5530    43.2620 ha         1 J26       0.135000
     48 H17        -36.1860   -19.4910    44.6230 hc         1 J26       0.054033
     49 H18        -36.8840   -17.9760    45.1760 hc         1 J26       0.054033
     50 H19        -37.7260   -18.8940    43.9570 hc         1 J26       0.054033
     51 H20        -34.4050   -13.7660    45.0830 hc         1 J26       0.069200
     52 H21        -35.4880   -13.6660    43.6880 hc         1 J26       0.069200
     53 H22        -33.8180   -12.2450    42.4040 hc         1 J26       0.039367
     54 H23        -32.6380   -12.3900    43.7120 hc         1 J26       0.039367
     55 H24        -32.2050   -12.8860    42.0690 hc         1 J26       0.039367
     56 H25        -31.9530   -14.6740    44.6170 hc         1 J26       0.039367
     57 H26        -32.5890   -16.1620    43.9090 hc         1 J26       0.039367
     58 H27        -31.4830   -15.1490    42.9790 hc         1 J26       0.039367
     59 H28        -34.6850   -17.3700    40.2900 hn         1 J26       0.369000
     60 H29        -36.9620   -20.2360    42.9980 hn         1 J26       0.334500
     61 H30        -38.6490   -23.7260    40.8540 hn         1 J26       0.155000
     62 N16        -39.2310   -23.2600    41.5390 ns         1 J26      -0.142000
     63 C05        -36.0750   -19.6420    41.2700 c          1 J26       0.647700
@<TRIPOS>BOND
     1     1     2 1   
     2     1    15 1   
     3     1    32 1   
     4     1    33 1   
     5     2    15 1   
     6     2    34 1   
     7     2    35 1   
     8     3    12 1   
     9     3    30 2   
    10     3    62 1   
    11     4     5 ar  
    12     4    17 ar  
    13     4    62 1   
    14     5     6 ar  
    15     5    36 1   
    16     6     7 ar  
    17     6    37 1   
    18     7     8 ar  
    19     7    16 1   
    20     8    17 ar  
    21     8    38 1   
    22     9    10 1   
    23     9    23 1   
    24     9    39 1   
    25     9    40 1   
    26    10    20 2   
    27    10    26 1   
    28    11    18 2   
    29    11    26 1   
    30    11    63 1   
    31    12    13 1   
    32    12    27 1   
    33    12    41 1   
    34    13    14 1   
    35    13    42 1   
    36    13    43 1   
    37    14    15 1   
    38    14    44 1   
    39    14    45 1   
    40    15    46 1   
    41    16    28 3   
    42    17    47 1   
    43    18    19 1   
    44    18    20 1   
    45    19    48 1   
    46    19    49 1   
    47    19    50 1   
    48    20    21 1   
    49    21    22 1   
    50    21    31 2   
    51    22    23 1   
    52    22    51 1   
    53    22    52 1   
    54    23    24 1   
    55    23    25 1   
    56    24    53 1   
    57    24    54 1   
    58    24    55 1   
    59    25    56 1   
    60    25    57 1   
    61    25    58 1   
    62    26    59 1   
    63    27    60 1   
    64    27    63 1   
    65    29    63 2   
    66    61    62 1   
@<TRIPOS>SUBSTRUCTURE
     1 J26         1 TEMP              0 ****  ****    0 ROOT
