@<TRIPOS>MOLECULE
J26
   63    66     1     0     0
SMALL
abcg2


@<TRIPOS>ATOM
      1 C12        -33.0770   -24.4810    40.4880 cx         1 J26      -0.130400
      2 C13        -34.4690   -24.9450    40.1790 cx         1 J26      -0.130400
      3 C14        -38.2810   -22.2120    42.1730 c          1 J26       0.594100
      4 C17        -40.3510   -23.2790    41.3070 ca         1 J26       0.011000
      5 C18        -40.8110   -24.1410    40.3030 ca         1 J26      -0.161500
      6 C19        -42.1410   -24.4910    40.2230 ca         1 J26      -0.041000
      7 C20        -43.0500   -23.9850    41.1540 ca         1 J26      -0.055000
      8 C23        -42.5980   -23.1300    42.1570 ca         1 J26      -0.041000
      9 C01        -35.3490   -15.0090    41.8590 c6         1 J26      -0.017100
     10 C02        -35.5010   -16.4080    42.3280 cc         1 J26      -0.086300
     11 C04        -35.9810   -18.5830    42.3780 cc         1 J26      -0.266600
     12 C08        -36.7780   -22.2070    41.8820 c3         1 J26       0.040700
     13 C09        -36.1280   -23.4010    42.5890 c3         1 J26      -0.085400
     14 C10        -34.6250   -23.5270    42.3480 c3         1 J26      -0.044400
     15 C11        -34.2520   -23.6460    40.8930 cx         1 J26      -0.133700
     16 C21        -44.4280   -24.3370    41.0790 cg         1 J26       0.331000
     17 C24        -41.2640   -22.7770    42.2400 ca         1 J26      -0.161500
     18 C25        -35.4530   -18.2830    43.6170 cd         1 J26      -0.015300
     19 C26        -35.2750   -19.2040    44.7810 c3         1 J26      -0.042800
     20 C27        -35.1440   -16.8910    43.5810 cd         1 J26      -0.269600
     21 C28        -34.5390   -16.0100    44.5630 c          1 J26       0.618700
     22 C30        -34.4410   -14.5560    44.1430 c6         1 J26      -0.175400
     23 C31        -34.2230   -14.3130    42.6420 c6         1 J26      -0.032000
     24 C32        -34.2710   -12.8130    42.3640 c3         1 J26      -0.088100
     25 C33        -32.8590   -14.8540    42.2090 c3         1 J26      -0.088100
     26 N03        -36.0040   -17.4250    41.6300 na         1 J26      -0.055000
     27 N07        -36.1930   -20.9770    42.3350 ns         1 J26      -0.480900
     28 N22        -45.5440   -24.6190    41.0190 n1         1 J26      -0.460000
     29 O06        -37.1970   -19.7420    40.7420 o          1 J26      -0.629100
     30 O15        -38.7550   -21.6220    43.1190 o          1 J26      -0.560100
     31 O29        -34.1570   -16.3760    45.6620 o          1 J26      -0.543100
     32 H1         -32.5310   -24.9980    41.2690 hc         1 J26       0.071950
     33 H2         -32.4590   -24.1350    39.6700 hc         1 J26       0.071950
     34 H3         -34.8030   -24.9210    39.1490 hc         1 J26       0.071950
     35 H4         -34.8650   -25.7750    40.7530 hc         1 J26       0.071950
     36 H5         -40.1160   -24.5420    39.5750 ha         1 J26       0.135000
     37 H6         -42.4740   -25.1560    39.4390 ha         1 J26       0.126000
     38 H7         -43.2940   -22.7320    42.8830 ha         1 J26       0.126000
     39 H8         -35.1530   -14.9720    40.7840 hc         1 J26       0.059200
     40 H9         -36.2900   -14.4700    42.0240 hc         1 J26       0.059200
     41 H10        -36.6230   -22.3070    40.8030 h1         1 J26       0.079700
     42 H11        -36.3240   -23.3300    43.6630 hc         1 J26       0.057700
     43 H12        -36.6210   -24.3120    42.2400 hc         1 J26       0.057700
     44 H13        -34.2800   -24.4170    42.8830 hc         1 J26       0.047700
     45 H14        -34.0910   -22.6860    42.7980 hc         1 J26       0.047700
     46 H15        -34.4100   -22.7500    40.3000 hc         1 J26       0.081700
     47 H16        -40.9490   -22.1130    43.0270 ha         1 J26       0.135000
     48 H17        -34.3850   -19.8290    44.6710 hc         1 J26       0.054033
     49 H18        -35.1570   -18.6450    45.7030 hc         1 J26       0.054033
     50 H19        -36.1320   -19.8670    44.9070 hc         1 J26       0.054033
     51 H20        -33.6480   -14.0770    44.7230 hc         1 J26       0.069200
     52 H21        -35.3820   -14.0770    44.4470 hc         1 J26       0.069200
     53 H22        -35.2310   -12.3830    42.6580 hc         1 J26       0.039367
     54 H23        -33.4870   -12.2910    42.9140 hc         1 J26       0.039367
     55 H24        -34.1230   -12.6110    41.3010 hc         1 J26       0.039367
     56 H25        -32.0590   -14.3630    42.7650 hc         1 J26       0.039367
     57 H26        -32.7610   -15.9290    42.3690 hc         1 J26       0.039367
     58 H27        -32.6920   -14.6620    41.1470 hc         1 J26       0.039367
     59 H28        -36.3440   -17.3760    40.6800 hn         1 J26       0.369000
     60 H29        -35.6410   -20.9940    43.1760 hn         1 J26       0.334500
     61 H30        -38.4710   -23.3900    40.5440 hn         1 J26       0.155000
     62 N16        -38.9960   -22.9760    41.3010 ns         1 J26      -0.142000
     63 C05        -36.5120   -19.8010    41.7590 c          1 J26       0.647700
@<TRIPOS>BOND
     1     1     2 1   
     2     1    15 1   
     3     1    32 1   
     4     1    33 1   
     5     2    15 1   
     6     2    34 1   
     7     2    35 1   
     8     3    12 1   
     9     3    30 2   
    10     3    62 1   
    11     4     5 ar  
    12     4    17 ar  
    13     4    62 1   
    14     5     6 ar  
    15     5    36 1   
    16     6     7 ar  
    17     6    37 1   
    18     7     8 ar  
    19     7    16 1   
    20     8    17 ar  
    21     8    38 1   
    22     9    10 1   
    23     9    23 1   
    24     9    39 1   
    25     9    40 1   
    26    10    20 2   
    27    10    26 1   
    28    11    18 2   
    29    11    26 1   
    30    11    63 1   
    31    12    13 1   
    32    12    27 1   
    33    12    41 1   
    34    13    14 1   
    35    13    42 1   
    36    13    43 1   
    37    14    15 1   
    38    14    44 1   
    39    14    45 1   
    40    15    46 1   
    41    16    28 3   
    42    17    47 1   
    43    18    19 1   
    44    18    20 1   
    45    19    48 1   
    46    19    49 1   
    47    19    50 1   
    48    20    21 1   
    49    21    22 1   
    50    21    31 2   
    51    22    23 1   
    52    22    51 1   
    53    22    52 1   
    54    23    24 1   
    55    23    25 1   
    56    24    53 1   
    57    24    54 1   
    58    24    55 1   
    59    25    56 1   
    60    25    57 1   
    61    25    58 1   
    62    26    59 1   
    63    27    60 1   
    64    27    63 1   
    65    29    63 2   
    66    61    62 1   
@<TRIPOS>SUBSTRUCTURE
     1 J26         1 TEMP              0 ****  ****    0 ROOT
