@<TRIPOS>MOLECULE
J27
   31    32     1     0     0
SMALL
bcc


@<TRIPOS>ATOM
      1 CL           0.3190    -2.0640    -1.1810 cl         1 J27      -0.047400
      2 C13          1.1220    -0.7430    -0.4020 ca         1 J27       0.030400
      3 C12          2.5040    -0.7740    -0.3080 ca         1 J27      -0.094000
      4 C10          3.1760     0.2730     0.3100 ca         1 J27      -0.191300
      5 C11          4.6720     0.2560     0.3910 c3         1 J27       0.196100
      6 N            5.2650     1.0170    -0.7450 nz         1 J27      -0.838600
      7 C9           2.4500     1.3400     0.8260 ca         1 J27      -0.102000
      8 C8           1.0690     1.3570     0.7200 ca         1 J27      -0.104000
      9 C7           0.3750     0.3160     0.1060 cp         1 J27       0.050000
     10 C6          -1.1030     0.3640     0.0000 cp         1 J27      -0.109000
     11 C1          -1.9090    -0.3320     0.9090 ca         1 J27      -0.012300
     12 C           -1.3060    -1.1590     2.0060 c3         1 J27      -0.059800
     13 C5          -1.6860     1.1310    -1.0010 ca         1 J27      -0.076000
     14 C4          -3.0650     1.2220    -1.1290 ca         1 J27      -0.169000
     15 C3          -3.8400     0.5270    -0.2250 ca         1 J27       0.168900
     16 F           -5.1780     0.5980    -0.3250 f          1 J27      -0.126900
     17 C2          -3.2920    -0.2400     0.7850 ca         1 J27      -0.167000
     18 H1           3.0550    -1.6130    -0.7140 ha         1 J27       0.152000
     19 H2           5.0360     0.7230     1.3030 hx         1 J27       0.107200
     20 H3           5.0700    -0.7540     0.3320 hx         1 J27       0.107200
     21 H4           6.2850     0.9910    -0.7160 hn         1 J27       0.454800
     22 H5           4.9810     0.6370    -1.6480 hn         1 J27       0.454800
     23 H6           4.9920     2.0000    -0.7310 hn         1 J27       0.454800
     24 H7           2.9590     2.1600     1.3170 ha         1 J27       0.139000
     25 H8           0.5100     2.1880     1.1280 ha         1 J27       0.167000
     26 H9          -0.6610    -0.5590     2.6490 hc         1 J27       0.052367
     27 H10         -2.0760    -1.6100     2.6290 hc         1 J27       0.052367
     28 H11         -0.6950    -1.9680     1.6020 hc         1 J27       0.052367
     29 H12         -1.0550     1.6650    -1.7000 ha         1 J27       0.134000
     30 H13         -3.5180     1.8150    -1.9110 ha         1 J27       0.164000
     31 H14         -3.9400    -0.7650     1.4750 ha         1 J27       0.163000
@<TRIPOS>BOND
     1     1     2 1   
     2     2     3 ar  
     3     2     9 ar  
     4     3     4 ar  
     5     3    18 1   
     6     4     5 1   
     7     4     7 ar  
     8     5     6 1   
     9     5    19 1   
    10     5    20 1   
    11     6    21 1   
    12     6    22 1   
    13     6    23 1   
    14     7     8 ar  
    15     7    24 1   
    16     8     9 ar  
    17     8    25 1   
    18     9    10 1   
    19    10    11 ar  
    20    10    13 ar  
    21    11    12 1   
    22    11    17 ar  
    23    12    26 1   
    24    12    27 1   
    25    12    28 1   
    26    13    14 ar  
    27    13    29 1   
    28    14    15 ar  
    29    14    30 1   
    30    15    16 1   
    31    15    17 ar  
    32    17    31 1   
@<TRIPOS>SUBSTRUCTURE
     1 J27         1 TEMP              0 ****  ****    0 ROOT
