@<TRIPOS>MOLECULE
J27
   31    32     1     0     0
SMALL
No Charge or Current Charge


@<TRIPOS>ATOM
      1 Cl           0.3490    -2.0910    -1.2160 cl         1 J27      -0.139000
      2 C13          1.1430    -0.7410    -0.4050 ca         1 J27       0.122000
      3 C12          2.5440    -0.7600    -0.2930 ca         1 J27      -0.076000
      4 C10          3.2240     0.3040     0.3300 ca         1 J27      -0.191300
      5 C11          4.7310     0.2820     0.4470 c3         1 J27       0.167900
      6 N            5.2620     0.9570    -0.7780 nz         1 J27      -0.976000
      7 C9           2.4900     1.3920     0.8390 ca         1 J27      -0.084000
      8 C8           1.0900     1.4110     0.7270 ca         1 J27      -0.086000
      9 C7           0.3930     0.3470     0.1100 cp         1 J27       0.050000
     10 C6          -1.0930     0.3920     0.0090 cp         1 J27      -0.109000
     11 C1          -1.9210    -0.3520     0.8940 ca         1 J27      -0.012300
     12 C           -1.3260    -1.2180     1.9980 c3         1 J27      -0.059800
     13 C5          -1.7000     1.1980    -0.9840 ca         1 J27      -0.058000
     14 C4          -3.0970     1.2580    -1.1090 ca         1 J27      -0.151000
     15 C3          -3.9030     0.5130    -0.2380 ca         1 J27       0.204000
     16 F           -5.2470     0.5670    -0.3560 f          1 J27      -0.162000
     17 C2          -3.3230    -0.2860     0.7580 ca         1 J27      -0.149000
     18 H1           3.1000    -1.6040    -0.6940 ha         1 J27       0.134000
     19 H2           5.0660     0.8200     1.3410 hx         1 J27       0.107200
     20 H3           5.1090    -0.7460     0.4980 hx         1 J27       0.107200
     21 H4           6.2920     1.0030    -0.8020 hn         1 J27       0.510000
     22 H5           4.9770     0.4820    -1.6470 hn         1 J27       0.510000
     23 H6           4.9310     1.9280    -0.8690 hn         1 J27       0.510000
     24 H7           3.0020     2.2220     1.3220 ha         1 J27       0.121000
     25 H8           0.5310     2.2560     1.1250 ha         1 J27       0.149000
     26 H9          -0.5410    -0.6820     2.5440 hc         1 J27       0.052367
     27 H10         -2.0830    -1.5180     2.7320 hc         1 J27       0.052367
     28 H11         -0.8850    -2.1330     1.5860 hc         1 J27       0.052367
     29 H12         -1.0760     1.7750    -1.6640 ha         1 J27       0.116000
     30 H13         -3.5540     1.8760    -1.8760 ha         1 J27       0.146000
     31 H14         -3.9680    -0.8520     1.4250 ha         1 J27       0.145000
@<TRIPOS>BOND
     1     1     2 1   
     2     2     3 ar  
     3     2     9 ar  
     4     3     4 ar  
     5     3    18 1   
     6     4     5 1   
     7     4     7 ar  
     8     5     6 1   
     9     5    19 1   
    10     5    20 1   
    11     6    21 1   
    12     6    22 1   
    13     6    23 1   
    14     7     8 ar  
    15     7    24 1   
    16     8     9 ar  
    17     8    25 1   
    18     9    10 1   
    19    10    11 ar  
    20    10    13 ar  
    21    11    12 1   
    22    11    17 ar  
    23    12    26 1   
    24    12    27 1   
    25    12    28 1   
    26    13    14 ar  
    27    13    29 1   
    28    14    15 ar  
    29    14    30 1   
    30    15    16 1   
    31    15    17 ar  
    32    17    31 1   
@<TRIPOS>SUBSTRUCTURE
     1 J27         1 TEMP              0 ****  ****    0 ROOT
