@<TRIPOS>MOLECULE
J28
   39    40     1     0     0
SMALL
bcc


@<TRIPOS>ATOM
      1 S            3.8520    -1.3680    -0.2430 s6         1 J28       1.260100
      2 NB          -1.2230    -0.0590     0.0350 ne         1 J28      -0.220400
      3 CG          -2.6020    -0.1560     0.0200 ca         1 J28      -0.018600
      4 CH           0.6700     1.1350    -0.0150 ca         1 J28       0.034400
      5 CK           3.4730     1.3920     0.0020 ca         1 J28       0.046700
      6 CN           4.9590     1.5980     0.0290 c3         1 J28      -0.067800
      7 OT           4.7280    -1.3830     0.9420 o          1 J28      -0.693867
      8 CZ          -5.3560    -0.5200     0.0620 ca         1 J28       0.190100
      9 OC1          4.5880    -1.2310    -1.5130 o          1 J28      -0.693867
     10 OC2          2.8840    -2.4780    -0.2580 o          1 J28      -0.693867
     11 CD1         -3.1260    -1.4650     0.1020 ca         1 J28       0.260600
     12 CD2         -3.4810     0.9370    -0.0530 ca         1 J28      -0.034000
     13 CE1         -4.5190    -1.6190     0.1270 ca         1 J28      -0.332000
     14 CE2         -4.8470     0.7950    -0.0380 ca         1 J28      -0.178300
     15 CI1          1.4920     0.0110    -0.1060 ca         1 J28      -0.018000
     16 CI2          1.2460     2.4070     0.0790 ca         1 J28      -0.019300
     17 CJ1          2.8690     0.1290    -0.0970 ca         1 J28      -0.236500
     18 CJ2          2.6340     2.4980     0.0870 ca         1 J28      -0.183000
     19 HOH         -6.9450    -1.5720     0.1600 ho         1 J28       0.418000
     20 HD2         -3.0530     1.9300    -0.1210 ha         1 J28       0.149000
     21 HE1         -4.9400    -2.6170     0.1970 ha         1 J28       0.124000
     22 HI1          1.0380    -0.9660    -0.1910 ha         1 J28       0.169000
     23 HJ2          3.0840     3.4810     0.1630 ha         1 J28       0.110000
     24 HNL         -1.3390    -2.3970     0.3090 hn         1 J28       0.427300
     25 HNLA        -2.6850    -3.4170     0.4690 hn         1 J28       0.427300
     26 HM          -6.4310     2.0340     0.7550 hc         1 J28       0.032367
     27 HMA         -5.2130     2.9000    -0.1730 hc         1 J28       0.032367
     28 HMB         -6.4210     1.9220    -0.9970 hc         1 J28       0.032367
     29 HN           5.4570     1.0520    -0.7700 hc         1 J28       0.054700
     30 HNA          5.1990     2.6550    -0.0810 hc         1 J28       0.054700
     31 HNB          5.3890     1.2520     0.9690 hc         1 J28       0.054700
     32 HP          -0.2030     3.6430     1.0840 hc         1 J28       0.034033
     33 HPA          1.0280     4.5360     0.1950 hc         1 J28       0.034033
     34 HPB         -0.2860     3.7300    -0.6620 hc         1 J28       0.034033
     35 CP           0.4040     3.6440     0.1780 c3         1 J28      -0.035800
     36 OH          -6.6910    -0.6450     0.0860 oh         1 J28      -0.498100
     37 NL          -2.3130    -2.5540     0.1130 nv         1 J28      -0.826200
     38 CM          -5.7770     1.9700    -0.1170 c3         1 J28      -0.016800
     39 NA          -0.7310     1.0830    -0.0260 nf         1 J28      -0.213400
@<TRIPOS>BOND
     1     1     7 1   
     2     1     9 1   
     3     1    10 1   
     4     1    17 1   
     5     2     3 1   
     6     2    39 2   
     7     3    11 ar  
     8     3    12 ar  
     9     4    15 ar  
    10     4    16 ar  
    11     4    39 1   
    12     5     6 1   
    13     5    17 ar  
    14     5    18 ar  
    15     6    29 1   
    16     6    30 1   
    17     6    31 1   
    18     8    13 ar  
    19     8    14 ar  
    20     8    36 1   
    21    11    13 ar  
    22    11    37 1   
    23    12    14 ar  
    24    12    20 1   
    25    13    21 1   
    26    14    38 1   
    27    15    17 ar  
    28    15    22 1   
    29    16    18 ar  
    30    16    35 1   
    31    18    23 1   
    32    19    36 1   
    33    24    37 1   
    34    25    37 1   
    35    26    38 1   
    36    27    38 1   
    37    28    38 1   
    38    32    35 1   
    39    33    35 1   
    40    34    35 1   
@<TRIPOS>SUBSTRUCTURE
     1 J28         1 TEMP              0 ****  ****    0 ROOT
