@<TRIPOS>MOLECULE
J28
   39    40     1     0     0
SMALL
No Charge or Current Charge


@<TRIPOS>ATOM
      1 S            4.2030    -1.4170    -0.4060 s6         1 J28       1.260100
      2 NB          -1.2830     0.2680     0.5260 ne         1 J28      -0.220400
      3 CG          -2.6640     0.0180     0.3430 ca         1 J28      -0.018600
      4 CH           0.7360     0.8850    -0.3290 ca         1 J28       0.034400
      5 CK           3.5080     1.3510     0.0070 ca         1 J28       0.046700
      6 CN           4.9870     1.6850     0.2020 c3         1 J28      -0.067800
      7 OT           4.8420    -1.4250     0.9180 o          1 J28      -0.693867
      8 CZ          -5.4250    -0.4240     0.0080 ca         1 J28       0.190100
      9 OC1          5.0650    -1.0060    -1.5240 o          1 J28      -0.693867
     10 OC2          3.2930    -2.5390    -0.6810 o          1 J28      -0.693867
     11 CD1         -3.1820    -1.3000     0.2910 ca         1 J28       0.399000
     12 CD2         -3.5500     1.1070     0.2320 ca         1 J28      -0.016000
     13 CE1         -4.5540    -1.5130     0.1240 ca         1 J28      -0.314000
     14 CE2         -4.9330     0.8950     0.0620 ca         1 J28      -0.178300
     15 CI1          1.6550    -0.1750    -0.4280 ca         1 J28       0.000000
     16 CI2          1.1990     2.1910    -0.0670 ca         1 J28      -0.019300
     17 CJ1          3.0450     0.0350    -0.2630 ca         1 J28      -0.236500
     18 CJ2          2.5790     2.4070     0.0990 ca         1 J28      -0.165000
     19 HOH         -6.8890    -1.6310    -0.1670 ho         1 J28       0.457000
     20 HD2         -3.1570     2.1210     0.2780 ha         1 J28       0.131000
     21 HE1         -4.9410    -2.5270     0.0840 ha         1 J28       0.106000
     22 HI1          1.2670    -1.1690    -0.6370 ha         1 J28       0.151000
     23 HJ2          2.9340     3.4140     0.3030 ha         1 J28       0.092000
     24 HNL         -1.4130    -2.2510     0.7040 hn         1 J28       0.482500
     25 HNLA        -2.7910    -3.3020     0.6190 hn         1 J28       0.482500
     26 HM          -6.6220     2.0860     0.7420 hc         1 J28       0.032367
     27 HMA         -5.3340     3.0440    -0.0000 hc         1 J28       0.032367
     28 HMB         -6.4080     2.0750    -1.0180 hc         1 J28       0.032367
     29 HN           5.5760     1.4430    -0.6890 hc         1 J28       0.054700
     30 HNA          5.1390     2.7530     0.3980 hc         1 J28       0.054700
     31 HNB          5.4120     1.1460     1.0560 hc         1 J28       0.054700
     32 HP          -0.4520     3.2400     0.8850 hc         1 J28       0.034033
     33 HPA          0.7600     4.3180     0.1820 hc         1 J28       0.034033
     34 HPB         -0.3720     3.4640    -0.8720 hc         1 J28       0.034033
     35 CP           0.2320     3.3680     0.0380 c3         1 J28      -0.035800
     36 OH          -6.7550    -0.6610    -0.1550 oh         1 J28      -0.537100
     37 NL          -2.3740    -2.4000     0.4080 nv         1 J28      -1.075000
     38 CM          -5.8740     2.0910    -0.0600 c3         1 J28      -0.016800
     39 NA          -0.6460     0.6220    -0.5100 nf         1 J28      -0.213400
@<TRIPOS>BOND
     1     1     7 1   
     2     1     9 1   
     3     1    10 1   
     4     1    17 1   
     5     2     3 1   
     6     2    39 2   
     7     3    11 ar  
     8     3    12 ar  
     9     4    15 ar  
    10     4    16 ar  
    11     4    39 1   
    12     5     6 1   
    13     5    17 ar  
    14     5    18 ar  
    15     6    29 1   
    16     6    30 1   
    17     6    31 1   
    18     8    13 ar  
    19     8    14 ar  
    20     8    36 1   
    21    11    13 ar  
    22    11    37 1   
    23    12    14 ar  
    24    12    20 1   
    25    13    21 1   
    26    14    38 1   
    27    15    17 ar  
    28    15    22 1   
    29    16    18 ar  
    30    16    35 1   
    31    18    23 1   
    32    19    36 1   
    33    24    37 1   
    34    25    37 1   
    35    26    38 1   
    36    27    38 1   
    37    28    38 1   
    38    32    35 1   
    39    33    35 1   
    40    34    35 1   
@<TRIPOS>SUBSTRUCTURE
     1 J28         1 TEMP              0 ****  ****    0 ROOT
