@<TRIPOS>MOLECULE
J29
   73    77     1     0     0
SMALL
bcc


@<TRIPOS>ATOM
      1 N1         -12.7530   -32.6980     9.8750 nh         1 J29      -0.685700
      2 N3         -12.1600   -27.6990     9.9670 nb         1 J29      -0.799500
      3 C4         -11.8150   -31.7280     9.9140 cc         1 J29       0.718300
      4 C5         -10.9080   -29.7280     9.9580 cd         1 J29       0.334300
      5 C6         -10.9610   -28.2540     9.9920 ca         1 J29       0.707000
      6 C7         -12.1980   -26.3560     9.9830 ca         1 J29       0.730700
      7 C8         -11.0340   -25.5930    10.0340 ca         1 J29      -0.525600
      8 C10         -9.7550   -30.4450     9.9130 cc         1 J29      -0.171400
      9 C13        -11.7000   -36.0940    10.9260 cp         1 J29      -0.054000
     10 C15        -11.8740   -38.0920    12.4210 ca         1 J29      -0.104000
     11 C17        -10.5990   -38.1270    14.4130 ca         1 J29       0.192200
     12 C20         -6.3580   -40.9310    12.7020 c3         1 J29       0.151100
     13 C21         -7.7090   -41.8890    14.4760 c6         1 J29       0.167300
     14 C22         -8.9340   -40.9790    14.4670 c6         1 J29       0.155300
     15 C24        -11.7000   -36.7390     9.6910 ca         1 J29      -0.102000
     16 C26        -12.3470   -34.6980     8.5600 ca         1 J29      -0.048300
     17 C1         -16.1420   -31.6740    11.3210 c3         1 J29      -0.086100
     18 C3         -14.1660   -32.3450     9.9220 c3         1 J29       0.244800
     19 N2         -12.0670   -30.4590     9.9640 nd         1 J29      -0.689000
     20 N4         -13.4210   -25.7900     9.9140 nv         1 J29      -0.960500
     21 C9          -9.8270   -26.2920    10.0620 ca         1 J29       0.730700
     22 N5          -8.6390   -25.6570    10.1510 nv         1 J29      -0.960500
     23 N6          -9.7930   -27.6310    10.0370 nb         1 J29      -0.799500
     24 S1         -10.1120   -32.1320     9.8690 ss         1 J29      -0.258300
     25 C11        -12.3700   -34.0610     9.8060 ca         1 J29       0.122600
     26 C12        -12.0390   -34.7440    10.9690 ca         1 J29      -0.098000
     27 C14        -11.3500   -36.8320    12.1520 cp         1 J29      -0.100300
     28 C16        -11.5040   -38.7600    13.5780 ca         1 J29      -0.161300
     29 O1          -9.4920   -37.9720    16.8020 o          1 J29      -0.588800
     30 O2         -10.9840   -39.9280    16.2850 o          1 J29      -0.588800
     31 N7          -8.6700   -39.8360    15.3470 n3         1 J29      -0.715500
     32 C18         -7.4660   -39.0870    14.9710 c6         1 J29       0.155300
     33 C19         -6.2850   -40.0550    14.9650 c6         1 J29       0.167300
     34 N8          -6.4770   -41.2150    14.1180 n3         1 J29      -0.712600
     35 N9         -10.0790   -36.9370    14.1810 nb         1 J29      -0.588000
     36 C23        -10.4530   -36.3010    13.0830 ca         1 J29       0.394200
     37 C25        -12.0120   -36.0480     8.5320 ca         1 J29      -0.130000
     38 C27        -12.6670   -33.9480     7.3030 c3         1 J29      -0.050800
     39 H1         -11.0650   -24.5110    10.0500 ha         1 J29       0.142000
     40 H2          -8.7410   -30.0840     9.9030 h4         1 J29       0.192000
     41 H3         -12.5840   -38.5470    11.7420 ha         1 J29       0.145000
     42 H4          -5.3770   -40.4970    12.5000 h1         1 J29       0.031033
     43 H5          -6.4290   -41.8610    12.1380 h1         1 J29       0.031033
     44 H6          -7.1110   -40.2430    12.2940 h1         1 J29       0.031033
     45 H7          -7.5990   -42.3100    15.4800 h1         1 J29       0.064700
     46 H8          -7.8830   -42.7190    13.7900 h1         1 J29       0.064700
     47 H9          -9.1590   -40.6410    13.4470 h1         1 J29       0.060450
     48 H10         -9.7930   -41.5360    14.8340 h1         1 J29       0.060450
     49 H11        -11.4320   -37.7860     9.6270 ha         1 J29       0.135000
     50 H12        -16.5080   -31.4900    12.3310 hc         1 J29       0.033367
     51 H13        -16.2960   -30.7610    10.7430 hc         1 J29       0.033367
     52 H14        -16.7670   -32.4530    10.8810 hc         1 J29       0.033367
     53 H15        -14.5400   -32.9750    11.9430 hc         1 J29       0.051700
     54 H16        -14.0740   -31.2900    11.7870 hc         1 J29       0.051700
     55 H17        -14.3270   -31.4690     9.2900 h1         1 J29       0.056700
     56 H18        -14.7240   -33.1680     9.4730 h1         1 J29       0.056700
     57 H19        -14.2250   -26.3760    10.0660 hn         1 J29       0.430050
     58 H20        -13.5340   -24.8130    10.1210 hn         1 J29       0.430050
     59 H21         -7.8040   -26.1880     9.9720 hn         1 J29       0.430050
     60 H22         -8.5860   -24.6700     9.9640 hn         1 J29       0.430050
     61 H23        -12.0750   -34.2150    11.9140 ha         1 J29       0.152000
     62 H24        -11.9150   -39.7310    13.8120 ha         1 J29       0.163000
     63 H25         -7.5880   -38.6180    13.9880 h1         1 J29       0.060450
     64 H26         -7.2790   -38.3010    15.7000 h1         1 J29       0.060450
     65 H27         -6.1150   -40.3970    15.9910 h1         1 J29       0.064700
     66 H28         -5.3890   -39.5180    14.6500 h1         1 J29       0.064700
     67 H30        -10.0070   -35.3270    12.9140 h4         1 J29       0.033100
     68 H31        -11.9840   -36.5670     7.5820 ha         1 J29       0.138000
     69 H32        -13.6910   -33.5710     7.3080 hc         1 J29       0.051700
     70 H33        -12.0100   -33.0870     7.1780 hc         1 J29       0.051700
     71 H34        -12.5520   -34.5880     6.4310 hc         1 J29       0.051700
     72 S2          -9.9740   -38.9700    15.8660 sy         1 J29       1.219800
     73 C2         -14.6750   -32.0790    11.3310 c3         1 J29      -0.099400
@<TRIPOS>BOND
     1     1     3 1   
     2     1    18 1   
     3     1    25 1   
     4     2     5 ar  
     5     2     6 ar  
     6     3    19 2   
     7     3    24 1   
     8     4     5 1   
     9     4     8 2   
    10     4    19 1   
    11     5    23 ar  
    12     6     7 ar  
    13     6    20 1   
    14     7    21 ar  
    15     7    39 1   
    16     8    24 1   
    17     8    40 1   
    18     9    15 ar  
    19     9    26 ar  
    20     9    27 1   
    21    10    27 ar  
    22    10    28 ar  
    23    10    41 1   
    24    11    28 ar  
    25    11    35 ar  
    26    11    72 1   
    27    12    34 1   
    28    12    42 1   
    29    12    43 1   
    30    12    44 1   
    31    13    14 1   
    32    13    34 1   
    33    13    45 1   
    34    13    46 1   
    35    14    31 1   
    36    14    47 1   
    37    14    48 1   
    38    15    37 ar  
    39    15    49 1   
    40    16    25 ar  
    41    16    37 ar  
    42    16    38 1   
    43    17    50 1   
    44    17    51 1   
    45    17    52 1   
    46    17    73 1   
    47    18    55 1   
    48    18    56 1   
    49    18    73 1   
    50    20    57 1   
    51    20    58 1   
    52    21    22 1   
    53    21    23 ar  
    54    22    59 1   
    55    22    60 1   
    56    25    26 ar  
    57    26    61 1   
    58    27    36 ar  
    59    28    62 1   
    60    29    72 2   
    61    30    72 2   
    62    31    32 1   
    63    31    72 1   
    64    32    33 1   
    65    32    63 1   
    66    32    64 1   
    67    33    34 1   
    68    33    65 1   
    69    33    66 1   
    70    35    36 ar  
    71    36    67 1   
    72    37    68 1   
    73    38    69 1   
    74    38    70 1   
    75    38    71 1   
    76    53    73 1   
    77    54    73 1   
@<TRIPOS>SUBSTRUCTURE
     1 J29         1 TEMP              0 ****  ****    0 ROOT
