@<TRIPOS>MOLECULE
J29
   73    77     1     0     0
SMALL
No Charge or Current Charge


@<TRIPOS>ATOM
      1 N1         -12.6870   -32.7340     9.9030 nh         1 J29      -0.824100
      2 N3         -12.0070   -27.5920     9.4890 nb         1 J29      -0.273500
      3 C4         -11.7260   -31.7490     9.8240 cc         1 J29       0.718300
      4 C5         -10.8420   -29.7090     9.8030 cd         1 J29       0.269000
      5 C6         -10.8650   -28.2230     9.8560 ca         1 J29       0.181000
      6 C7         -11.9940   -26.2550     9.5300 ca         1 J29       0.402400
      7 C8         -10.8770   -25.5270     9.9220 ca         1 J29      -0.377000
      8 C10         -9.6970   -30.4520     9.6050 cc         1 J29      -0.233000
      9 C13        -11.8280   -36.2440    10.8580 cp         1 J29      -0.054000
     10 C15        -11.8470   -38.3790    12.2430 ca         1 J29      -0.086000
     11 C17        -10.7630   -38.4000    14.4230 ca         1 J29       0.126900
     12 C20         -6.4590   -40.2730    12.5950 c3         1 J29       0.151100
     13 C21         -7.3920   -41.7780    14.3480 c6         1 J29       0.167300
     14 C22         -8.7950   -41.1210    14.5530 c6         1 J29       0.155300
     15 C24        -11.9010   -36.8690     9.5900 ca         1 J29      -0.084000
     16 C26        -12.4920   -34.7570     8.5160 ca         1 J29      -0.048300
     17 C1         -15.9390   -31.7570    11.8210 c3         1 J29      -0.086100
     18 C3         -14.1040   -32.3570    10.1210 c3         1 J29       0.244800
     19 N2         -12.0080   -30.4630     9.9190 nd         1 J29      -0.689000
     20 N4         -13.1370   -25.6310     9.1660 nv         1 J29      -1.070900
     21 C9          -9.7530   -26.2630    10.2750 ca         1 J29       0.402400
     22 N5          -8.6130   -25.6490    10.6660 nv         1 J29      -1.070900
     23 N6          -9.7260   -27.6000    10.2460 nb         1 J29      -0.273500
     24 S1         -10.0440   -32.1560     9.5790 ss         1 J29      -0.113400
     25 C11        -12.4310   -34.1120     9.7740 ca         1 J29       0.261000
     26 C12        -12.0980   -34.8540    10.9210 ca         1 J29      -0.080000
     27 C14        -11.4730   -37.0210    12.0890 cp         1 J29      -0.035000
     28 C16        -11.4900   -39.0680    13.4140 ca         1 J29      -0.078000
     29 O1         -10.0270   -38.4040    17.0620 o          1 J29      -0.518000
     30 O2         -11.1940   -40.4710    16.1390 o          1 J29      -0.518000
     31 N7          -8.7610   -40.0170    15.5630 n3         1 J29      -0.715500
     32 C18         -7.6970   -39.0230    15.2210 c6         1 J29       0.155300
     33 C19         -6.3030   -39.6980    15.0140 c6         1 J29       0.167300
     34 N8          -6.3360   -40.7820    13.9820 n3         1 J29      -0.712600
     35 N9         -10.3970   -37.0890    14.2890 nb         1 J29      -0.588000
     36 C23        -10.7470   -36.4330    13.1570 ca         1 J29       0.328900
     37 C25        -12.2270   -36.1370     8.4370 ca         1 J29      -0.112000
     38 C27        -12.8350   -33.9820     7.2460 c3         1 J29      -0.050800
     39 H1         -10.8820   -24.4430     9.9500 ha         1 J29       0.124000
     40 H2          -8.6810   -30.1040     9.4740 h4         1 J29       0.174000
     41 H3         -12.4180   -38.8900    11.4720 ha         1 J29       0.127000
     42 H4          -5.6320   -39.5900    12.3610 h1         1 J29       0.031033
     43 H5          -6.4230   -41.1030    11.8770 h1         1 J29       0.031033
     44 H6          -7.4020   -39.7320    12.4440 h1         1 J29       0.031033
     45 H7          -7.1150   -42.2840    15.2840 h1         1 J29       0.064700
     46 H8          -7.4700   -42.5610    13.5800 h1         1 J29       0.064700
     47 H9          -9.1550   -40.7460    13.5840 h1         1 J29       0.060450
     48 H10         -9.4920   -41.9110    14.8670 h1         1 J29       0.060450
     49 H11        -11.6860   -37.9310     9.4920 ha         1 J29       0.117000
     50 H12        -16.1470   -31.6210    12.8890 hc         1 J29       0.033367
     51 H13        -16.1700   -30.8180    11.3040 hc         1 J29       0.033367
     52 H14        -16.6070   -32.5380    11.4380 hc         1 J29       0.033367
     53 H15        -14.2550   -33.0700    12.1620 hc         1 J29       0.051700
     54 H16        -13.8220   -31.3660    12.0300 hc         1 J29       0.051700
     55 H17        -14.3520   -31.4480     9.5550 h1         1 J29       0.056700
     56 H18        -14.7560   -33.1440     9.7180 h1         1 J29       0.056700
     57 H19        -13.9840   -26.1890     9.0890 hn         1 J29       0.485250
     58 H20        -13.2560   -24.6480     9.3980 hn         1 J29       0.485250
     59 H21         -7.7600   -26.2010    10.7160 hn         1 J29       0.485250
     60 H22         -8.5060   -24.6530    10.4900 hn         1 J29       0.485250
     61 H23        -12.0620   -34.3380    11.8750 ha         1 J29       0.134000
     62 H24        -11.7770   -40.1100    13.5370 ha         1 J29       0.145000
     63 H25         -7.9590   -38.4740    14.3060 h1         1 J29       0.060450
     64 H26         -7.5960   -38.2760    16.0210 h1         1 J29       0.060450
     65 H27         -5.9810   -40.1140    15.9790 h1         1 J29       0.064700
     66 H28         -5.5660   -38.9270    14.7440 h1         1 J29       0.064700
     67 H30        -10.4190   -35.3960    13.0970 h4         1 J29       0.033100
     68 H31        -12.2670   -36.6470     7.4760 ha         1 J29       0.120000
     69 H32        -13.8470   -33.5660     7.3000 hc         1 J29       0.051700
     70 H33        -12.1380   -33.1500     7.0930 hc         1 J29       0.051700
     71 H34        -12.7870   -34.6180     6.3540 hc         1 J29       0.051700
     72 S2         -10.2850   -39.3300    15.9490 sy         1 J29       1.078200
     73 C2         -14.4640   -32.1480    11.6070 c3         1 J29      -0.099400
@<TRIPOS>BOND
     1     1     3 1   
     2     1    18 1   
     3     1    25 1   
     4     2     5 ar  
     5     2     6 ar  
     6     3    19 2   
     7     3    24 1   
     8     4     5 1   
     9     4     8 2   
    10     4    19 1   
    11     5    23 ar  
    12     6     7 ar  
    13     6    20 1   
    14     7    21 ar  
    15     7    39 1   
    16     8    24 1   
    17     8    40 1   
    18     9    15 ar  
    19     9    26 ar  
    20     9    27 1   
    21    10    27 ar  
    22    10    28 ar  
    23    10    41 1   
    24    11    28 ar  
    25    11    35 ar  
    26    11    72 1   
    27    12    34 1   
    28    12    42 1   
    29    12    43 1   
    30    12    44 1   
    31    13    14 1   
    32    13    34 1   
    33    13    45 1   
    34    13    46 1   
    35    14    31 1   
    36    14    47 1   
    37    14    48 1   
    38    15    37 ar  
    39    15    49 1   
    40    16    25 ar  
    41    16    37 ar  
    42    16    38 1   
    43    17    50 1   
    44    17    51 1   
    45    17    52 1   
    46    17    73 1   
    47    18    55 1   
    48    18    56 1   
    49    18    73 1   
    50    20    57 1   
    51    20    58 1   
    52    21    22 1   
    53    21    23 ar  
    54    22    59 1   
    55    22    60 1   
    56    25    26 ar  
    57    26    61 1   
    58    27    36 ar  
    59    28    62 1   
    60    29    72 2   
    61    30    72 2   
    62    31    32 1   
    63    31    72 1   
    64    32    33 1   
    65    32    63 1   
    66    32    64 1   
    67    33    34 1   
    68    33    65 1   
    69    33    66 1   
    70    35    36 ar  
    71    36    67 1   
    72    37    68 1   
    73    38    69 1   
    74    38    70 1   
    75    38    71 1   
    76    53    73 1   
    77    54    73 1   
@<TRIPOS>SUBSTRUCTURE
     1 J29         1 TEMP              0 ****  ****    0 ROOT
