@<TRIPOS>MOLECULE
J2A
   69    75     1     0     0
SMALL
No Charge or Current Charge


@<TRIPOS>ATOM
      1 C27          1.9480    -0.7380    -0.6680 c5         1 J2A       0.183300
      2 C30          4.2180    -0.1500    -1.0520 c5         1 J2A       0.274300
      3 C32          6.0730     0.6880     0.4740 ca         1 J2A       0.124500
      4 C34          6.2600     1.6230     2.5550 ca         1 J2A       0.201900
      5 C40          6.7130    -0.1240    -1.5030 cc         1 J2A       0.419700
      6 C38          7.4360     0.7540     0.3250 ca         1 J2A      -0.096600
      7 C10         -5.9920    -0.1140     0.4680 cc         1 J2A       0.201000
      8 C15         -8.3780    -0.4240     0.7710 c          1 J2A       0.662000
      9 C02         -1.5600    -0.9080     1.6790 c5         1 J2A       0.105300
     10 C03         -2.3610     0.4460     1.6020 c5         1 J2A       0.146300
     11 C08         -3.4590     0.0450     0.5440 c5         1 J2A       0.320300
     12 C12         -7.4800     0.4680    -1.2260 cc         1 J2A       0.903100
     13 C17         -6.9910    -0.5330     1.2710 cd         1 J2A       0.133500
     14 C19         -5.1010    -0.8560     2.2960 cc         1 J2A       0.400400
     15 C21         -1.5220    -1.2260     0.1670 c5         1 J2A       0.130300
     16 C22         -0.9690    -2.6440    -0.1800 c3         1 J2A       0.217600
     17 C28          3.3660    -0.9800    -0.0520 c5         1 J2A       0.161300
     18 C36          8.1960     1.2960     1.3820 ca         1 J2A       0.460900
     19 C42          2.0760     0.7320    -1.2390 c5         1 J2A       0.131300
     20 C43          1.1870     1.8220    -0.5760 c3         1 J2A       0.194600
     21 N09         -4.7820    -0.3190     1.0540 na         1 J2A      -0.231500
     22 N11         -6.1970     0.3640    -0.8210 na         1 J2A      -0.929200
     23 N14         -8.4990     0.1100    -0.5170 nd         1 J2A      -0.786100
     24 N18         -6.4220    -1.0010     2.4560 nd         1 J2A      -0.579000
     25 N31          5.6070     0.1270    -0.6840 na         1 J2A      -0.306300
     26 N33          5.4530     1.1200     1.5900 nb         1 J2A      -0.271000
     27 N35          7.6100     1.7320     2.5080 nb         1 J2A      -0.300000
     28 N37          9.5510     1.4010     1.3320 nv         1 J2A      -1.056900
     29 N39          7.8620     0.2460    -0.9070 nd         1 J2A      -0.552100
     30 O01         -0.2720    -0.8690     2.3120 oh         1 J2A      -0.723000
     31 O04         -1.6190     1.5450     0.9750 os         1 J2A      -0.573400
     32 O16         -9.3790    -0.7570     1.3900 o          1 J2A      -0.520100
     33 O20         -2.9190    -1.0980    -0.1780 os         1 J2A      -0.424000
     34 O23         -0.5660    -2.7950    -1.5660 os         1 J2A      -0.571400
     35 O26          1.7350    -1.6530    -1.7880 os         1 J2A      -0.528400
     36 O29          3.7380    -2.3690     0.0830 oh         1 J2A      -0.690000
     37 O41          3.4800     1.0830    -1.1150 os         1 J2A      -0.446000
     38 O44          0.9330     1.4810     0.8010 os         1 J2A      -0.585400
     39 P05         -0.2760     2.1710     1.6270 p5         1 J2A       1.176200
     40 P24          0.2590    -1.7180    -2.4500 p5         1 J2A       1.105200
     41 S06         -0.3250     4.1300     0.8890 sh         1 J2A      -0.470200
     42 S25          0.6600    -2.8430    -4.1670 sh         1 J2A      -0.423200
     43 H1           1.1690    -0.8570     0.0910 h1         1 J2A       0.102700
     44 H2           4.2300    -0.6370    -2.0380 h2         1 J2A       0.112700
     45 H3           5.7730     1.9760     3.4630 h5         1 J2A       0.051100
     46 H4           6.6170    -0.5640    -2.4890 h5         1 J2A       0.078800
     47 H5          -2.1770    -1.6690     2.1820 h1         1 J2A       0.079700
     48 H6          -2.7830     0.7720     2.5630 h1         1 J2A       0.093700
     49 H7          -3.6170     0.8860    -0.1430 h2         1 J2A       0.112700
     50 H8          -4.3450    -1.1170     3.0270 h5         1 J2A       0.065100
     51 H9          -0.9520    -0.4480    -0.3500 h1         1 J2A       0.093700
     52 H10         -0.1080    -2.8480     0.4710 h1         1 J2A       0.075200
     53 H11         -1.7370    -3.3870     0.0740 h1         1 J2A       0.075200
     54 H12          3.3980    -0.5020     0.9370 h1         1 J2A       0.049700
     55 H13          1.8470     0.7480    -2.3120 h1         1 J2A       0.117700
     56 H14          1.6910     2.7940    -0.6600 h1         1 J2A       0.061200
     57 H15          0.2430     1.8810    -1.1340 h1         1 J2A       0.061200
     58 H16         -5.4520     0.5790    -1.4670 hn         1 J2A       0.507000
     59 H17         -7.0300     1.7150    -2.6320 hn         1 J2A       0.506000
     60 H18         -8.6260     1.1510    -2.5920 hn         1 J2A       0.506000
     61 H19         10.0190     0.8780     0.5950 hn         1 J2A       0.511000
     62 H20         10.0570     1.5040     2.2070 hn         1 J2A       0.511000
     63 H21         -0.4020    -0.6370     3.2640 ho         1 J2A       0.548000
     64 H22          4.6120    -2.3940     0.5390 ho         1 J2A       0.559000
     65 H23         -0.2220     4.5100     2.1840 hs         1 J2A       0.311800
     66 H24          0.0820    -1.8380    -4.8620 hs         1 J2A       0.301800
     67 N13         -7.6530     0.9540    -2.4100 nv         1 J2A      -1.052200
     68 O07         -0.1920     2.0860     3.1090 o          1 J2A      -0.519000
     69 O45         -0.4050    -0.4160    -2.7210 o          1 J2A      -0.510000
@<TRIPOS>BOND
     1     1    17 1   
     2     1    19 1   
     3     1    35 1   
     4     1    43 1   
     5     2    17 1   
     6     2    25 1   
     7     2    37 1   
     8     2    44 1   
     9     3     6 ar  
    10     3    25 1   
    11     3    26 ar  
    12     4    26 ar  
    13     4    27 ar  
    14     4    45 1   
    15     5    25 1   
    16     5    29 2   
    17     5    46 1   
    18     6    18 ar  
    19     6    29 1   
    20     7    13 2   
    21     7    21 1   
    22     7    22 1   
    23     8    13 1   
    24     8    23 1   
    25     8    32 2   
    26     9    10 1   
    27     9    15 1   
    28     9    30 1   
    29     9    47 1   
    30    10    11 1   
    31    10    31 1   
    32    10    48 1   
    33    11    21 1   
    34    11    33 1   
    35    11    49 1   
    36    12    22 1   
    37    12    23 2   
    38    12    67 1   
    39    13    24 1   
    40    14    21 1   
    41    14    24 2   
    42    14    50 1   
    43    15    16 1   
    44    15    33 1   
    45    15    51 1   
    46    16    34 1   
    47    16    52 1   
    48    16    53 1   
    49    17    36 1   
    50    17    54 1   
    51    18    27 ar  
    52    18    28 1   
    53    19    20 1   
    54    19    37 1   
    55    19    55 1   
    56    20    38 1   
    57    20    56 1   
    58    20    57 1   
    59    22    58 1   
    60    28    61 1   
    61    28    62 1   
    62    30    63 1   
    63    31    39 1   
    64    34    40 1   
    65    35    40 1   
    66    36    64 1   
    67    38    39 1   
    68    39    41 1   
    69    39    68 2   
    70    40    42 1   
    71    40    69 2   
    72    41    65 1   
    73    42    66 1   
    74    59    67 1   
    75    60    67 1   
@<TRIPOS>SUBSTRUCTURE
     1 J2A         1 TEMP              0 ****  ****    0 ROOT
