@<TRIPOS>MOLECULE
J2A
   69    75     1     0     0
SMALL
bcc


@<TRIPOS>ATOM
      1 C27          2.2100    -1.0480    -0.4550 c5         1 J2A       0.160100
      2 C30          4.4770    -0.4330    -0.8000 c5         1 J2A       0.221800
      3 C32          6.1780     0.5320     0.7760 ca         1 J2A       0.452800
      4 C34          6.9200    -0.0320     2.7760 ca         1 J2A       0.727900
      5 C40          5.9480     1.6100    -1.1090 cc         1 J2A       0.419700
      6 C38          7.0570     1.5980     0.6880 ca         1 J2A      -0.227200
      7 C10         -5.9350     0.1410     0.6600 cc         1 J2A       0.048000
      8 C15         -7.9180     0.0490     2.0580 c          1 J2A       0.662000
      9 C02         -1.8320    -0.6420     0.6870 c5         1 J2A       0.082100
     10 C03         -2.7340     0.4930     0.2070 c5         1 J2A       0.123100
     11 C08         -3.7950    -0.3050    -0.5630 c5         1 J2A       0.267800
     12 C12         -7.3160     1.9850     0.8620 cc         1 J2A       0.903100
     13 C17         -6.7370    -0.5780     1.5020 cd         1 J2A       0.198800
     14 C19         -5.1430    -1.8630     0.9410 cc         1 J2A       0.400400
     15 C21         -1.8180    -1.5230    -0.5590 c5         1 J2A       0.107100
     16 C22         -1.4310    -2.9780    -0.3540 c3         1 J2A       0.194400
     17 C28          3.4870    -0.7840     0.3290 c5         1 J2A       0.138100
     18 C36          7.9100     1.7960     1.7900 ca         1 J2A       0.789200
     19 C42          2.3230    -0.0400    -1.5940 c5         1 J2A       0.108100
     20 C43          1.7170     1.3180    -1.2560 c3         1 J2A       0.171400
     21 N09         -4.9120    -0.6660     0.2960 na         1 J2A      -0.252900
     22 N11         -6.1890     1.4300     0.3170 na         1 J2A      -0.735600
     23 N14         -8.1160     1.3540     1.6770 nd         1 J2A      -0.786100
     24 N18         -6.2200    -1.8360     1.6620 nd         1 J2A      -0.579000
     25 N31          5.4610     0.5560    -0.3820 na         1 J2A      -0.277000
     26 N33          6.0720    -0.3180     1.8010 nb         1 J2A      -0.797000
     27 N35          7.8080     0.9520     2.8250 nb         1 J2A      -0.826000
     28 N37          8.8060     2.7800     1.8390 nv         1 J2A      -0.946500
     29 N39          6.8950     2.2610    -0.4990 nd         1 J2A      -0.552100
     30 O01         -0.5600    -0.2620     1.0830 oh         1 J2A      -0.600800
     31 O04         -2.0930     1.3130    -0.7660 os         1 J2A      -0.550200
     32 O16         -8.6950    -0.5170     2.8170 o          1 J2A      -0.520100
     33 O20         -3.1700    -1.4710    -1.0080 os         1 J2A      -0.377600
     34 O23         -0.0130    -3.0770    -0.1820 os         1 J2A      -0.548200
     35 O26          2.2680    -2.3940    -0.9400 os         1 J2A      -0.505200
     36 O29          3.8540    -1.8520     1.1280 oh         1 J2A      -0.567800
     37 O41          3.7190     0.1120    -1.8360 os         1 J2A      -0.399600
     38 O44          0.3030     1.1560    -1.3280 os         1 J2A      -0.562200
     39 P05         -0.7350     2.1400    -0.6100 p5         1 J2A       1.405500
     40 P24          0.9810    -3.1900    -1.4380 p5         1 J2A       1.334500
     41 S06         -1.2010     3.6040    -2.0220 sh         1 J2A      -0.470200
     42 S25          1.8240    -5.0850    -1.3930 sh         1 J2A      -0.423200
     43 H1           1.3220    -0.9000     0.1590 h1         1 J2A       0.102700
     44 H2           5.0100    -1.3270    -1.1430 h2         1 J2A       0.112700
     45 H3           6.8830    -0.6810     3.6440 h5         1 J2A       0.051100
     46 H4           5.5580     1.8550    -2.0840 h5         1 J2A       0.078800
     47 H5          -2.3620    -1.1690     1.4930 h1         1 J2A       0.079700
     48 H6          -3.1480     1.1080     1.0080 h1         1 J2A       0.093700
     49 H7          -4.1920     0.2630    -1.4100 h2         1 J2A       0.112700
     50 H8          -4.4870    -2.7100     0.8200 h5         1 J2A       0.065100
     51 H9          -1.1660    -1.0910    -1.3250 h1         1 J2A       0.093700
     52 H10         -1.8790    -3.3910     0.5500 h1         1 J2A       0.075200
     53 H11         -1.7710    -3.5750    -1.2030 h1         1 J2A       0.075200
     54 H12          3.3120     0.1280     0.9180 h1         1 J2A       0.049700
     55 H13          1.8560    -0.4070    -2.5110 h1         1 J2A       0.117700
     56 H14          2.0200     1.6700    -0.2660 h1         1 J2A       0.061200
     57 H15          2.0430     2.0540    -1.9950 h1         1 J2A       0.061200
     58 H16         -5.6320     1.9410    -0.3530 hn         1 J2A       0.451800
     59 H17         -6.9090     3.8160     0.0250 hn         1 J2A       0.450800
     60 H18         -8.3320     3.7190     0.9750 hn         1 J2A       0.450800
     61 H19          8.9100     3.4280     1.0790 hn         1 J2A       0.455800
     62 H20          9.3830     2.9010     2.6540 hn         1 J2A       0.455800
     63 H21         -0.5970     0.1360     1.9600 ho         1 J2A       0.449000
     64 H22          4.6500    -1.5540     1.6110 ho         1 J2A       0.460000
     65 H23         -0.1590     4.3900    -1.7190 hs         1 J2A       0.311800
     66 H24          0.9290    -5.6220    -2.2320 hs         1 J2A       0.301800
     67 N13         -7.5900     3.2420     0.4930 nv         1 J2A      -0.941800
     68 O07         -0.3420     2.6730     0.7080 o          1 J2A      -0.748300
     69 O45          0.3640    -2.8010    -2.7250 o          1 J2A      -0.739300
@<TRIPOS>BOND
     1     1    17 1   
     2     1    19 1   
     3     1    35 1   
     4     1    43 1   
     5     2    17 1   
     6     2    25 1   
     7     2    37 1   
     8     2    44 1   
     9     3     6 ar  
    10     3    25 1   
    11     3    26 ar  
    12     4    26 ar  
    13     4    27 ar  
    14     4    45 1   
    15     5    25 1   
    16     5    29 2   
    17     5    46 1   
    18     6    18 ar  
    19     6    29 1   
    20     7    13 2   
    21     7    21 1   
    22     7    22 1   
    23     8    13 1   
    24     8    23 1   
    25     8    32 2   
    26     9    10 1   
    27     9    15 1   
    28     9    30 1   
    29     9    47 1   
    30    10    11 1   
    31    10    31 1   
    32    10    48 1   
    33    11    21 1   
    34    11    33 1   
    35    11    49 1   
    36    12    22 1   
    37    12    23 2   
    38    12    67 1   
    39    13    24 1   
    40    14    21 1   
    41    14    24 2   
    42    14    50 1   
    43    15    16 1   
    44    15    33 1   
    45    15    51 1   
    46    16    34 1   
    47    16    52 1   
    48    16    53 1   
    49    17    36 1   
    50    17    54 1   
    51    18    27 ar  
    52    18    28 1   
    53    19    20 1   
    54    19    37 1   
    55    19    55 1   
    56    20    38 1   
    57    20    56 1   
    58    20    57 1   
    59    22    58 1   
    60    28    61 1   
    61    28    62 1   
    62    30    63 1   
    63    31    39 1   
    64    34    40 1   
    65    35    40 1   
    66    36    64 1   
    67    38    39 1   
    68    39    41 1   
    69    39    68 2   
    70    40    42 1   
    71    40    69 2   
    72    41    65 1   
    73    42    66 1   
    74    59    67 1   
    75    60    67 1   
@<TRIPOS>SUBSTRUCTURE
     1 J2A         1 TEMP              0 ****  ****    0 ROOT
