@<TRIPOS>MOLECULE
J2B
   73    77     1     0     0
SMALL
No Charge or Current Charge


@<TRIPOS>ATOM
      1 C02          5.1380     1.2220    -2.7380 c5         1 J2B       0.140300
      2 C03          4.4450     1.5970    -1.3930 c5         1 J2B       0.119300
      3 C08          0.8640     2.6360     0.3810 c3         1 J2B       0.200600
      4 C09         -0.3350     2.0860    -0.4080 c3         1 J2B      -0.092400
      5 C11         -3.6170    -0.0840     0.1830 c3         1 J2B       0.294300
      6 C13         -4.8270    -1.9960    -0.8540 ca         1 J2B       0.131500
      7 C15         -4.7020    -4.2750    -0.7150 ca         1 J2B       0.172900
      8 C17         -6.2580    -3.3990    -2.1480 ca         1 J2B       0.444900
      9 C19         -5.8390    -2.1040    -1.7760 ca         1 J2B      -0.096600
     10 C21         -5.5430     0.0200    -1.5220 cc         1 J2B       0.430700
     11 C22         -2.4340     0.5980    -0.5780 c3         1 J2B       0.105300
     12 C24         -1.2790     1.1110     0.3540 c3         1 J2B       0.208300
     13 C31          3.3220     0.4980    -1.2390 c5         1 J2B       0.302300
     14 C33          2.1160    -0.9340     0.4680 cc         1 J2B       0.206000
     15 C35          0.2290    -2.2670     0.1970 cc         1 J2B       0.890100
     16 C38          1.2620    -2.2430     2.3200 c          1 J2B       0.669000
     17 C40          2.2730    -1.3260     1.7480 cd         1 J2B       0.152500
     18 C42          3.9380    -0.0370     1.2110 cc         1 J2B       0.402400
     19 C44          4.9970    -0.3280    -2.6970 c5         1 J2B       0.162300
     20 C45          6.0200    -1.0460    -1.7600 c3         1 J2B       0.144600
     21 N12         -4.6450    -0.6530    -0.6950 na         1 J2B      -0.270300
     22 N14         -4.2320    -3.0730    -0.3020 nb         1 J2B      -0.211000
     23 N16         -5.6920    -4.4940    -1.6150 nb         1 J2B      -0.313000
     24 N18         -7.2540    -3.6200    -3.0470 nv         1 J2B      -1.075900
     25 N20         -6.3080    -0.8540    -2.2090 nd         1 J2B      -0.581100
     26 N32          3.1550    -0.1550     0.0660 na         1 J2B      -0.217500
     27 N34          1.1150    -1.4190    -0.3630 na         1 J2B      -0.932200
     28 N36         -0.7330    -2.6410    -0.5800 nv         1 J2B      -1.040200
     29 N37          0.2600    -2.6420     1.4290 nd         1 J2B      -0.771100
     30 N41          3.4390    -0.7370     2.2370 nd         1 J2B      -0.588000
     31 O01          4.4410     1.8120    -3.8440 oh         1 J2B      -0.703000
     32 O04          3.8910     2.9360    -1.5820 os         1 J2B      -0.564400
     33 O07          1.6150     3.4700    -0.5150 os         1 J2B      -0.594400
     34 O10         -4.2810     0.8860     0.9960 oh         1 J2B      -0.678000
     35 O23         -1.8890    -0.2870    -1.5860 oh         1 J2B      -0.662000
     36 O25         -1.8420     1.7870     1.5020 os         1 J2B      -0.609400
     37 O28          0.2100     1.4500     3.0440 o          1 J2B      -0.727000
     38 O29         -1.8450     2.5230     3.9590 o          1 J2B      -0.727000
     39 O30          3.7600     3.3710     1.0110 o          1 J2B      -0.454000
     40 O39          1.2680    -2.6690     3.4680 o          1 J2B      -0.529100
     41 O43          3.6360    -0.5120    -2.2290 os         1 J2B      -0.419000
     42 O46          5.9310    -2.4770    -1.8880 oh         1 J2B      -0.701000
     43 P05          3.2000     3.6900    -0.3280 p5         1 J2B       1.109200
     44 P26         -1.2730     1.5420     3.0000 p5         1 J2B       1.203800
     45 S06          3.3760     5.6810    -0.9230 sh         1 J2B      -0.494200
     46 S27         -2.1430    -0.3140     3.3200 sh         1 J2B      -0.658200
     47 H1           6.1930     1.5320    -2.7440 h1         1 J2B       0.065700
     48 H2           5.1710     1.6010    -0.5700 h1         1 J2B       0.090700
     49 H3           0.5020     3.2320     1.2300 h1         1 J2B       0.090700
     50 H4           1.4660     1.8080     0.7760 h1         1 J2B       0.090700
     51 H5          -0.9270     2.9340    -0.7720 hc         1 J2B       0.052200
     52 H6           0.0520     1.5740    -1.2970 hc         1 J2B       0.052200
     53 H7          -3.2240    -0.8890     0.8180 h2         1 J2B       0.107700
     54 H8          -4.2360    -5.1570    -0.2790 h5         1 J2B       0.043100
     55 H9          -5.5880     1.1010    -1.5780 h5         1 J2B       0.073800
     56 H10         -2.8560     1.4800    -1.0800 h1         1 J2B       0.079700
     57 H11         -0.6940     0.2440     0.6850 h1         1 J2B       0.065700
     58 H12          2.3450     0.9310    -1.4820 h2         1 J2B       0.086700
     59 H13          4.8450     0.5540     1.2440 h5         1 J2B       0.065100
     60 H14          5.0970    -0.7570    -3.7030 h1         1 J2B       0.104700
     61 H15          7.0300    -0.7140    -2.0370 h1         1 J2B       0.027700
     62 H16          5.8540    -0.7460    -0.7180 h1         1 J2B       0.027700
     63 H17         -7.8340    -2.8190    -3.2870 hn         1 J2B       0.500500
     64 H18         -7.7090    -4.5290    -3.0480 hn         1 J2B       0.500500
     65 H19          1.0460    -1.1870    -1.3420 hn         1 J2B       0.503000
     66 H20         -0.3820    -3.0120    -1.4530 hn         1 J2B       0.495500
     67 H21         -1.3180    -3.3110    -0.0990 hn         1 J2B       0.495500
     68 H22          3.9880     2.5890    -3.4290 ho         1 J2B       0.525000
     69 H23         -3.5340     1.4190     1.3750 ho         1 J2B       0.507000
     70 H24         -1.5640    -1.1120    -1.1380 ho         1 J2B       0.458000
     71 H26          6.6080    -2.8680    -1.2870 ho         1 J2B       0.510000
     72 H27          2.5880     5.3130    -1.9590 hs         1 J2B       0.296800
     73 H28         -3.0960     0.3990     3.9630 hs         1 J2B       0.301800
@<TRIPOS>BOND
     1     1     2 1   
     2     1    19 1   
     3     1    31 1   
     4     1    47 1   
     5     2    13 1   
     6     2    32 1   
     7     2    48 1   
     8     3     4 1   
     9     3    33 1   
    10     3    49 1   
    11     3    50 1   
    12     4    12 1   
    13     4    51 1   
    14     4    52 1   
    15     5    11 1   
    16     5    21 1   
    17     5    34 1   
    18     5    53 1   
    19     6     9 ar  
    20     6    21 1   
    21     6    22 ar  
    22     7    22 ar  
    23     7    23 ar  
    24     7    54 1   
    25     8     9 ar  
    26     8    23 ar  
    27     8    24 1   
    28     9    25 1   
    29    10    21 1   
    30    10    25 2   
    31    10    55 1   
    32    11    12 1   
    33    11    35 1   
    34    11    56 1   
    35    12    36 1   
    36    12    57 1   
    37    13    26 1   
    38    13    41 1   
    39    13    58 1   
    40    14    17 2   
    41    14    26 1   
    42    14    27 1   
    43    15    27 1   
    44    15    28 1   
    45    15    29 2   
    46    16    17 1   
    47    16    29 1   
    48    16    40 2   
    49    17    30 1   
    50    18    26 1   
    51    18    30 2   
    52    18    59 1   
    53    19    20 1   
    54    19    41 1   
    55    19    60 1   
    56    20    42 1   
    57    20    61 1   
    58    20    62 1   
    59    24    63 1   
    60    24    64 1   
    61    27    65 1   
    62    28    66 1   
    63    28    67 1   
    64    31    68 1   
    65    32    43 1   
    66    33    43 1   
    67    34    69 1   
    68    35    70 1   
    69    36    44 1   
    70    37    44 1   
    71    38    44 1   
    72    39    43 2   
    73    42    71 1   
    74    43    45 1   
    75    44    46 1   
    76    45    72 1   
    77    46    73 1   
@<TRIPOS>SUBSTRUCTURE
     1 J2B         1 TEMP              0 ****  ****    0 ROOT
