@<TRIPOS>MOLECULE
J2B
   73    77     1     0     0
SMALL
bcc


@<TRIPOS>ATOM
      1 C02          5.6290     1.6960    -2.5630 c5         1 J2B       0.117100
      2 C03          4.8460     1.0310    -1.4380 c5         1 J2B       0.096100
      3 C08          0.1740     1.2390     0.4250 c3         1 J2B       0.177400
      4 C09         -1.0930     1.0560    -0.3790 c3         1 J2B      -0.092400
      5 C11         -4.8920     0.4850     0.2060 c3         1 J2B       0.241800
      6 C13         -6.2970    -1.3830    -0.6940 ca         1 J2B       0.459800
      7 C15         -6.5440    -3.5050    -0.1880 ca         1 J2B       0.698900
      8 C17         -7.7800    -2.7270    -1.9670 ca         1 J2B       0.773200
      9 C19         -7.1950    -1.4670    -1.7460 ca         1 J2B      -0.227200
     10 C21         -6.5280     0.5360    -1.7130 cc         1 J2B       0.430700
     11 C22         -3.5120     0.4500    -0.4850 c3         1 J2B       0.082100
     12 C24         -2.3450     0.8180     0.4530 c3         1 J2B       0.185100
     13 C31          5.0560    -0.4530    -1.7470 c5         1 J2B       0.249800
     14 C33          3.8520    -1.7890    -0.0080 cc         1 J2B       0.053000
     15 C35          1.6360    -2.3430     0.3510 cc         1 J2B       0.890100
     16 C38          3.1760    -2.8970     2.0420 c          1 J2B       0.669000
     17 C40          4.2020    -2.3230     1.2000 cd         1 J2B       0.217800
     18 C42          5.9770    -1.5220     0.3530 cc         1 J2B       0.402400
     19 C44          6.8310     0.7580    -2.6280 c5         1 J2B       0.139100
     20 C45          7.9360     1.1660    -1.6730 c3         1 J2B       0.121400
     21 N12         -5.8860    -0.0850    -0.6770 na         1 J2B      -0.241000
     22 N14         -5.9300    -2.3750     0.1160 nb         1 J2B      -0.737000
     23 N16         -7.4270    -3.7320    -1.1580 nb         1 J2B      -0.839000
     24 N18         -8.6580    -2.9530    -2.9460 nv         1 J2B      -0.965500
     25 N20         -7.3250    -0.2540    -2.3720 nd         1 J2B      -0.581100
     26 N32          4.9750    -1.2830    -0.5630 na         1 J2B      -0.238900
     27 N34          2.5760    -1.7910    -0.4730 na         1 J2B      -0.738600
     28 N36          0.3650    -2.3020    -0.0920 nv         1 J2B      -0.929800
     29 N37          1.9030    -2.8550     1.5180 nd         1 J2B      -0.771100
     30 N41          5.5460    -2.1480     1.4040 nd         1 J2B      -0.588000
     31 O01          4.9460     1.6300    -3.7830 oh         1 J2B      -0.580800
     32 O04          3.4690     1.3510    -1.4380 os         1 J2B      -0.541200
     33 O07          1.2630     1.2550    -0.5280 os         1 J2B      -0.571200
     34 O10         -5.3260     1.7720     0.5080 oh         1 J2B      -0.615800
     35 O23         -3.2830    -0.8050    -1.0670 oh         1 J2B      -0.599800
     36 O25         -2.6940     1.9850     1.1900 os         1 J2B      -0.586200
     37 O28         -1.0910     1.5720     3.1750 o          1 J2B      -0.727000
     38 O29         -2.9280     3.4680     3.1720 o          1 J2B      -0.727000
     39 O30          3.2760     1.0490     1.1550 o          1 J2B      -0.683300
     40 O39          3.3900    -3.3880     3.1430 o          1 J2B      -0.529100
     41 O43          6.3270    -0.5450    -2.2930 os         1 J2B      -0.372600
     42 O46          8.9140     0.1600    -1.6780 oh         1 J2B      -0.578800
     43 P05          2.7140     1.6810    -0.0550 p5         1 J2B       1.338500
     44 P26         -2.4400     2.1050     2.8240 p5         1 J2B       1.203800
     45 S06          2.7380     3.7410     0.1850 sh         1 J2B      -0.494200
     46 S27         -3.7590     0.6270     3.6290 sh         1 J2B      -0.658200
     47 H1           5.9230     2.7200    -2.3040 h1         1 J2B       0.065700
     48 H2           5.3120     1.2770    -0.4790 h1         1 J2B       0.090700
     49 H3           0.1650     2.1730     0.9890 h1         1 J2B       0.090700
     50 H4           0.3230     0.4160     1.1230 h1         1 J2B       0.090700
     51 H5          -1.2540     1.9250    -1.0240 hc         1 J2B       0.052200
     52 H6          -0.9640     0.1930    -1.0360 hc         1 J2B       0.052200
     53 H7          -4.8660    -0.1630     1.0940 h2         1 J2B       0.107700
     54 H8          -6.2990    -4.3630     0.4290 h5         1 J2B       0.043100
     55 H9          -6.3780     1.5830    -1.9280 h5         1 J2B       0.073800
     56 H10         -3.5400     1.1690    -1.3130 h1         1 J2B       0.079700
     57 H11         -2.1860    -0.0240     1.1410 h1         1 J2B       0.065700
     58 H12          4.2930    -0.8080    -2.4510 h2         1 J2B       0.086700
     59 H13          6.9980    -1.2330     0.1570 h5         1 J2B       0.065100
     60 H14          7.2300     0.7090    -3.6450 h1         1 J2B       0.104700
     61 H15          8.3300     2.1310    -2.0180 h1         1 J2B       0.027700
     62 H16          7.5330     1.3330    -0.6650 h1         1 J2B       0.027700
     63 H17         -8.9650    -2.2090    -3.5470 hn         1 J2B       0.445300
     64 H18         -9.0890    -3.8560    -3.0440 hn         1 J2B       0.445300
     65 H19          2.3260    -1.4340    -1.3840 hn         1 J2B       0.447800
     66 H20          0.1720    -2.1840    -1.0730 hn         1 J2B       0.440300
     67 H21         -0.3030    -2.8550     0.4170 hn         1 J2B       0.440300
     68 H22          4.1690     2.1980    -3.7400 ho         1 J2B       0.426000
     69 H23         -4.5530     2.2810     0.7900 ho         1 J2B       0.468000
     70 H24         -3.3000    -1.4870    -0.3840 ho         1 J2B       0.419000
     71 H26          9.6170     0.4200    -1.0750 ho         1 J2B       0.411000
     72 H27          2.1880     4.0530    -0.9970 hs         1 J2B       0.296800
     73 H28         -4.9170     1.2660     3.4200 hs         1 J2B       0.301800
@<TRIPOS>BOND
     1     1     2 1   
     2     1    19 1   
     3     1    31 1   
     4     1    47 1   
     5     2    13 1   
     6     2    32 1   
     7     2    48 1   
     8     3     4 1   
     9     3    33 1   
    10     3    49 1   
    11     3    50 1   
    12     4    12 1   
    13     4    51 1   
    14     4    52 1   
    15     5    11 1   
    16     5    21 1   
    17     5    34 1   
    18     5    53 1   
    19     6     9 ar  
    20     6    21 1   
    21     6    22 ar  
    22     7    22 ar  
    23     7    23 ar  
    24     7    54 1   
    25     8     9 ar  
    26     8    23 ar  
    27     8    24 1   
    28     9    25 1   
    29    10    21 1   
    30    10    25 2   
    31    10    55 1   
    32    11    12 1   
    33    11    35 1   
    34    11    56 1   
    35    12    36 1   
    36    12    57 1   
    37    13    26 1   
    38    13    41 1   
    39    13    58 1   
    40    14    17 2   
    41    14    26 1   
    42    14    27 1   
    43    15    27 1   
    44    15    28 1   
    45    15    29 2   
    46    16    17 1   
    47    16    29 1   
    48    16    40 2   
    49    17    30 1   
    50    18    26 1   
    51    18    30 2   
    52    18    59 1   
    53    19    20 1   
    54    19    41 1   
    55    19    60 1   
    56    20    42 1   
    57    20    61 1   
    58    20    62 1   
    59    24    63 1   
    60    24    64 1   
    61    27    65 1   
    62    28    66 1   
    63    28    67 1   
    64    31    68 1   
    65    32    43 1   
    66    33    43 1   
    67    34    69 1   
    68    35    70 1   
    69    36    44 1   
    70    37    44 1   
    71    38    44 1   
    72    39    43 2   
    73    42    71 1   
    74    43    45 1   
    75    44    46 1   
    76    45    72 1   
    77    46    73 1   
@<TRIPOS>SUBSTRUCTURE
     1 J2B         1 TEMP              0 ****  ****    0 ROOT
