@<TRIPOS>MOLECULE
J2C
   38    40     1     0     0
SMALL
No Charge or Current Charge


@<TRIPOS>ATOM
      1 C12         -8.3930    41.4730    81.2430 c3         1 J2C       0.086700
      2 N01         -4.1630    43.5800    82.6610 n          1 J2C      -0.404800
      3 C02         -4.6320    42.4770    83.5430 c6         1 J2C       0.096000
      4 C03         -5.9520    41.8840    82.9990 c6         1 J2C      -0.101900
      5 C04         -5.7900    41.3600    81.5410 c5         1 J2C       0.286400
      6 C05         -5.2680    42.5430    80.6790 c6         1 J2C      -0.101900
      7 C06         -3.9620    43.1420    81.2550 c6         1 J2C       0.096000
      8 N07         -7.0700    40.8470    80.9790 n          1 J2C      -0.412800
      9 C08         -7.0080    39.7560    80.0860 c          1 J2C       0.569000
     10 C09         -5.5540    39.2960    79.9500 c5         1 J2C      -0.037400
     11 S10         -4.6840    39.8750    81.4760 ss         1 J2C      -0.416000
     12 O11         -7.9820    39.2560    79.5380 o          1 J2C      -0.524000
     13 C13         -9.0550    40.8980    82.4680 cc         1 J2C       0.097300
     14 C14         -9.3530    39.6070    82.8070 cd         1 J2C      -0.146000
     15 C15         -9.9510    39.6440    84.0820 cd         1 J2C      -0.188000
     16 C16         -9.9940    40.9560    84.4710 cc         1 J2C       0.126900
     17 O17         -9.4450    41.7440    83.4830 os         1 J2C      -0.242000
     18 C19         -4.3730    45.3360    84.5070 c3         1 J2C       0.035600
     19 O20         -3.9620    45.8220    82.1910 o          1 J2C      -0.584100
     20 H1          -8.2660    42.5550    81.3720 h1         1 J2C       0.070700
     21 H2          -9.0590    41.3350    80.3810 h1         1 J2C       0.070700
     22 H3          -3.8600    41.6950    83.5810 h1         1 J2C       0.067700
     23 H4          -4.7890    42.8120    84.5760 h1         1 J2C       0.067700
     24 H5          -6.7230    42.6640    83.0490 hc         1 J2C       0.070950
     25 H6          -6.2890    41.0680    83.6520 hc         1 J2C       0.070950
     26 H7          -6.0310    43.3300    80.6260 hc         1 J2C       0.070950
     27 H8          -5.0950    42.2120    79.6470 hc         1 J2C       0.070950
     28 H9          -3.1620    42.3880    81.2240 h1         1 J2C       0.067700
     29 H10         -3.6340    43.9780    80.6220 h1         1 J2C       0.067700
     30 H11         -5.5180    38.2040    79.8570 h1         1 J2C       0.101700
     31 H12         -5.1220    39.7620    79.0560 h1         1 J2C       0.101700
     32 H13         -9.1570    38.7260    82.2040 ha         1 J2C       0.148000
     33 H14        -10.3110    38.7970    84.6570 ha         1 J2C       0.143000
     34 H15        -10.3640    41.4400    85.3650 h4         1 J2C       0.051100
     35 H16         -3.8070    44.6540    85.1510 h1         1 J2C       0.088200
     36 H17         -3.9960    46.3540    84.6570 h1         1 J2C       0.088200
     37 Cl1         -6.1300    45.3130    85.0160 cl         1 J2C      -0.256000
     38 C18         -4.1590    44.9500    83.0310 c          1 J2C       0.604100
@<TRIPOS>BOND
     1     1     8 1   
     2     1    13 1   
     3     1    20 1   
     4     1    21 1   
     5     2     3 1   
     6     2     7 1   
     7     2    38 1   
     8     3     4 1   
     9     3    22 1   
    10     3    23 1   
    11     4     5 1   
    12     4    24 1   
    13     4    25 1   
    14     5     6 1   
    15     5     8 1   
    16     5    11 1   
    17     6     7 1   
    18     6    26 1   
    19     6    27 1   
    20     7    28 1   
    21     7    29 1   
    22     8     9 1   
    23     9    10 1   
    24     9    12 2   
    25    10    11 1   
    26    10    30 1   
    27    10    31 1   
    28    13    14 2   
    29    13    17 1   
    30    14    15 1   
    31    14    32 1   
    32    15    16 2   
    33    15    33 1   
    34    16    17 1   
    35    16    34 1   
    36    18    35 1   
    37    18    36 1   
    38    18    37 1   
    39    18    38 1   
    40    19    38 2   
@<TRIPOS>SUBSTRUCTURE
     1 J2C         1 TEMP              0 ****  ****    0 ROOT
