@<TRIPOS>MOLECULE
J2C
   38    40     1     0     0
SMALL
abcg2


@<TRIPOS>ATOM
      1 C12         -8.2000    41.4200    81.4490 c3         1 J2C       0.086700
      2 N01         -4.1780    43.7490    82.5410 n          1 J2C      -0.404800
      3 C02         -4.4060    42.6630    83.4760 c6         1 J2C       0.096000
      4 C03         -5.6970    41.9260    83.1330 c6         1 J2C      -0.101900
      5 C04         -5.6710    41.4150    81.6960 c5         1 J2C       0.286400
      6 C05         -5.3210    42.5520    80.7360 c6         1 J2C      -0.101900
      7 C06         -4.0630    43.2950    81.1660 c6         1 J2C       0.096000
      8 N07         -6.9100    40.7600    81.3020 n          1 J2C      -0.412800
      9 C08         -6.8310    39.6410    80.5470 c          1 J2C       0.569000
     10 C09         -5.4060    39.1620    80.3850 c5         1 J2C      -0.037400
     11 S10         -4.4210    40.0650    81.5920 ss         1 J2C      -0.416000
     12 O11         -7.7830    39.0900    80.0310 o          1 J2C      -0.524000
     13 C13         -9.0950    40.7510    82.4300 cc         1 J2C       0.097300
     14 C14        -10.2750    40.1040    82.2870 cd         1 J2C      -0.146000
     15 C15        -10.6700    39.6940    83.5970 cd         1 J2C      -0.188000
     16 C16         -9.6930    40.1210    84.4290 cc         1 J2C       0.126900
     17 O17         -8.7350    40.7660    83.7320 os         1 J2C      -0.242000
     18 C19         -4.4070    45.4680    84.2820 c3         1 J2C       0.035600
     19 O20         -4.1240    45.9400    81.9810 o          1 J2C      -0.584100
     20 H1          -8.0310    42.4590    81.7320 h1         1 J2C       0.070700
     21 H2          -8.7110    41.4460    80.4860 h1         1 J2C       0.070700
     22 H3          -3.5460    41.9870    83.4380 h1         1 J2C       0.067700
     23 H4          -4.4620    43.0210    84.4990 h1         1 J2C       0.067700
     24 H5          -6.5230    42.6290    83.2650 hc         1 J2C       0.070950
     25 H6          -5.8490    41.1010    83.8290 hc         1 J2C       0.070950
     26 H7          -6.1550    43.2610    80.6970 hc         1 J2C       0.070950
     27 H8          -5.1850    42.1590    79.7260 hc         1 J2C       0.070950
     28 H9          -3.1940    42.6340    81.0910 h1         1 J2C       0.067700
     29 H10         -3.8840    44.1430    80.5120 h1         1 J2C       0.067700
     30 H11         -5.3440    38.0900    80.5710 h1         1 J2C       0.101700
     31 H12         -5.0780    39.3490    79.3600 h1         1 J2C       0.101700
     32 H13        -10.8010    39.9380    81.3610 ha         1 J2C       0.148000
     33 H14        -11.5580    39.1500    83.8770 ha         1 J2C       0.143000
     34 H15         -9.5470    40.0420    85.4950 h4         1 J2C       0.051100
     35 H16         -3.7800    44.9130    84.9760 h1         1 J2C       0.088200
     36 H17         -4.1850    46.5260    84.3770 h1         1 J2C       0.088200
     37 CL1         -6.1190    45.2370    84.7710 cl         1 J2C      -0.256000
     38 C18         -4.2260    45.0650    82.8270 c          1 J2C       0.604100
@<TRIPOS>BOND
     1     1     8 1   
     2     1    13 1   
     3     1    20 1   
     4     1    21 1   
     5     2     3 1   
     6     2     7 1   
     7     2    38 1   
     8     3     4 1   
     9     3    22 1   
    10     3    23 1   
    11     4     5 1   
    12     4    24 1   
    13     4    25 1   
    14     5     6 1   
    15     5     8 1   
    16     5    11 1   
    17     6     7 1   
    18     6    26 1   
    19     6    27 1   
    20     7    28 1   
    21     7    29 1   
    22     8     9 1   
    23     9    10 1   
    24     9    12 2   
    25    10    11 1   
    26    10    30 1   
    27    10    31 1   
    28    13    14 2   
    29    13    17 1   
    30    14    15 1   
    31    14    32 1   
    32    15    16 2   
    33    15    33 1   
    34    16    17 1   
    35    16    34 1   
    36    18    35 1   
    37    18    36 1   
    38    18    37 1   
    39    18    38 1   
    40    19    38 2   
@<TRIPOS>SUBSTRUCTURE
     1 J2C         1 TEMP              0 ****  ****    0 ROOT
