@<TRIPOS>MOLECULE
J2D
   48    50     1     0     0
SMALL
abcg2


@<TRIPOS>ATOM
      1 CAO         -6.2420    -0.9250    -1.0360 c6         1 J2D      -0.105400
      2 CAM         -6.9910    -2.2200    -0.7630 c6         1 J2D       0.154600
      3 OAS         -6.9850    -2.5580     0.6070 os         1 J2D      -0.445000
      4 CAN         -5.6780    -2.7240     1.1090 c6         1 J2D       0.154600
      5 CAP         -4.8380    -1.4660     0.9560 c6         1 J2D      -0.105400
      6 CBB         -4.8130    -1.0300    -0.5170 c6         1 J2D      -0.135700
      7 CAU         -4.0480     0.2690    -0.6450 c          1 J2D       0.607100
      8 OAB         -4.5810     1.3690    -0.6570 o          1 J2D      -0.593100
      9 N           -2.7100     0.1360    -0.6910 ns         1 J2D      -0.501900
     10 CA          -1.8390     1.2800    -0.6750 c3         1 J2D       0.091000
     11 C           -2.1900     2.1870     0.5140 c          1 J2D       0.604100
     12 O           -2.4250     1.7520     1.6210 o          1 J2D      -0.555100
     13 NAQ         -2.0870     3.4930     0.2090 ns         1 J2D      -0.369400
     14 OAC         -2.4500     4.4240     1.1350 oh         1 J2D      -0.423100
     15 CAZ         -0.3990     0.8540    -0.5260 ca         1 J2D      -0.104300
     16 CAJ          0.5740     1.3730    -1.3710 ca         1 J2D      -0.091000
     17 CAH          1.9050     1.0160    -1.2230 ca         1 J2D      -0.095000
     18 CAI         -0.0130    -0.0340     0.4750 ca         1 J2D      -0.091000
     19 CAG          1.3150    -0.3970     0.6190 ca         1 J2D      -0.095000
     20 CAX          2.2960     0.1240    -0.2250 cp         1 J2D      -0.033000
     21 CAY          3.7110    -0.2600    -0.0640 cp         1 J2D       0.006000
     22 CAK          4.0500    -1.5630     0.2990 ca         1 J2D      -0.139000
     23 CAV          5.3750    -1.9060     0.4520 ca         1 J2D       0.162000
     24 FAD          5.7140    -3.1510     0.7910 f          1 J2D      -0.153000
     25 CBA          6.3850    -0.9830     0.2500 ca         1 J2D       0.091000
     26 FAF          7.6620    -1.3280     0.4010 f          1 J2D      -0.140000
     27 CAW          6.0400     0.3060    -0.1110 ca         1 J2D       0.162000
     28 FAE          7.0160     1.1960    -0.2930 f          1 J2D      -0.153000
     29 CAL          4.7220     0.6780    -0.2690 ca         1 J2D      -0.139000
     30 H1          -6.2540    -0.7250    -2.1100 hc         1 J2D       0.064950
     31 H2          -6.7550    -0.0940    -0.5460 hc         1 J2D       0.064950
     32 H3          -8.0360    -2.1240    -1.0620 h1         1 J2D       0.043950
     33 H4          -6.5530    -3.0340    -1.3610 h1         1 J2D       0.043950
     34 H5          -5.7710    -2.9940     2.1620 h1         1 J2D       0.043950
     35 H6          -5.1740    -3.5580     0.5980 h1         1 J2D       0.043950
     36 H7          -5.2520    -0.6620     1.5710 hc         1 J2D       0.064950
     37 H8          -3.8280    -1.6670     1.3220 hc         1 J2D       0.064950
     38 H9          -4.2840    -1.8040    -1.0870 hc         1 J2D       0.050700
     39 H10         -2.3010    -0.7840    -0.7360 hn         1 J2D       0.327500
     40 H11         -1.9370     1.8460    -1.6090 h1         1 J2D       0.063700
     41 H12         -2.1390     3.8160    -0.7470 hn         1 J2D       0.332500
     42 H13         -1.6260     4.7710     1.5000 ho         1 J2D       0.445000
     43 H14          0.2930     2.0540    -2.1650 ha         1 J2D       0.126000
     44 H15          2.6370     1.4190    -1.9100 ha         1 J2D       0.122000
     45 H16         -0.7460    -0.4420     1.1600 ha         1 J2D       0.126000
     46 H17          1.5900    -1.0740     1.4180 ha         1 J2D       0.122000
     47 H18          3.2910    -2.3210     0.4430 ha         1 J2D       0.142500
     48 H19          4.4930     1.7030    -0.5270 ha         1 J2D       0.142500
@<TRIPOS>BOND
     1     1     2 1   
     2     1     6 1   
     3     1    30 1   
     4     1    31 1   
     5     2     3 1   
     6     2    32 1   
     7     2    33 1   
     8     3     4 1   
     9     4     5 1   
    10     4    34 1   
    11     4    35 1   
    12     5     6 1   
    13     5    36 1   
    14     5    37 1   
    15     6     7 1   
    16     6    38 1   
    17     7     8 2   
    18     7     9 1   
    19     9    10 1   
    20     9    39 1   
    21    10    11 1   
    22    10    15 1   
    23    10    40 1   
    24    11    12 2   
    25    11    13 1   
    26    13    14 1   
    27    13    41 1   
    28    14    42 1   
    29    15    16 ar  
    30    15    18 ar  
    31    16    17 ar  
    32    16    43 1   
    33    17    20 ar  
    34    17    44 1   
    35    18    19 ar  
    36    18    45 1   
    37    19    20 ar  
    38    19    46 1   
    39    20    21 1   
    40    21    22 ar  
    41    21    29 ar  
    42    22    23 ar  
    43    22    47 1   
    44    23    24 1   
    45    23    25 ar  
    46    25    26 1   
    47    25    27 ar  
    48    27    28 1   
    49    27    29 ar  
    50    29    48 1   
@<TRIPOS>SUBSTRUCTURE
     1 J2D         1 TEMP              0 ****  ****    0 ROOT
