@<TRIPOS>MOLECULE
J2D
   48    50     1     0     0
SMALL
No Charge or Current Charge


@<TRIPOS>ATOM
      1 CAO         -5.2980    -1.6940    -1.5750 c6         1 J2D      -0.105400
      2 CAM         -6.0520    -3.0270    -1.3480 c6         1 J2D       0.154600
      3 OAS         -7.1520    -2.8250    -0.4310 os         1 J2D      -0.445000
      4 CAN         -6.7500    -2.3980     0.8890 c6         1 J2D       0.154600
      5 CAP         -6.0420    -1.0230     0.8110 c6         1 J2D      -0.105400
      6 CBB         -4.8790    -1.0650    -0.2180 c6         1 J2D      -0.135700
      7 CAU         -4.1310     0.2780    -0.3620 c          1 J2D       0.607100
      8 OAB         -4.6720     1.2780    -0.8130 o          1 J2D      -0.593100
      9 N           -2.8170     0.2830     0.0470 ns         1 J2D      -0.501900
     10 CA          -1.9340     1.4650     0.0010 c3         1 J2D       0.091000
     11 C           -2.1750     2.4210     1.2130 c          1 J2D       0.604100
     12 O           -2.8830     2.1320     2.1740 o          1 J2D      -0.555100
     13 NAQ         -1.4860     3.6310     1.1430 ns         1 J2D      -0.369400
     14 OAC         -1.7910     4.7190     2.0500 oh         1 J2D      -0.423100
     15 CAZ         -0.4750     1.0230    -0.0880 ca         1 J2D      -0.104300
     16 CAJ          0.2580     1.2320    -1.2720 ca         1 J2D      -0.091000
     17 CAH          1.6000     0.8250    -1.3570 ca         1 J2D      -0.095000
     18 CAI          0.1520     0.3960     1.0050 ca         1 J2D      -0.091000
     19 CAG          1.4940    -0.0110     0.9170 ca         1 J2D      -0.095000
     20 CAX          2.2480     0.1950    -0.2660 cp         1 J2D      -0.033000
     21 CAY          3.6780    -0.2380    -0.3590 cp         1 J2D       0.006000
     22 CAK          4.1300    -1.4180     0.2860 ca         1 J2D      -0.139000
     23 CAV          5.4720    -1.8250     0.1980 ca         1 J2D       0.162000
     24 FAD          5.8670    -2.9580     0.8220 f          1 J2D      -0.153000
     25 CBA          6.3970    -1.0630    -0.5360 ca         1 J2D       0.091000
     26 FAF          7.6910    -1.4550    -0.6210 f          1 J2D      -0.140000
     27 CAW          5.9690     0.1100    -1.1820 ca         1 J2D       0.162000
     28 FAE          6.8460     0.8570    -1.8890 f          1 J2D      -0.153000
     29 CAL          4.6270     0.5170    -1.0950 ca         1 J2D      -0.139000
     30 H1          -4.4160    -1.8670    -2.2070 hc         1 J2D       0.064950
     31 H2          -5.9480    -1.0000    -2.1250 hc         1 J2D       0.064950
     32 H3          -6.4450    -3.4040    -2.3020 h1         1 J2D       0.043950
     33 H4          -5.3720    -3.7860    -0.9350 h1         1 J2D       0.043950
     34 H5          -7.6400    -2.3260     1.5300 h1         1 J2D       0.043950
     35 H6          -6.0760    -3.1500     1.3240 h1         1 J2D       0.043950
     36 H7          -6.7720    -0.2560     0.5190 hc         1 J2D       0.064950
     37 H8          -5.6660    -0.7390     1.8040 hc         1 J2D       0.064950
     38 H9          -4.1410    -1.7610     0.2080 hc         1 J2D       0.050700
     39 H10         -2.4450    -0.5860     0.4080 hn         1 J2D       0.327500
     40 H11         -2.1800     2.0410    -0.9010 h1         1 J2D       0.063700
     41 H12         -1.0070     3.8840     0.2800 hn         1 J2D       0.332500
     42 H13         -0.9070     4.9880     2.3950 ho         1 J2D       0.445000
     43 H14         -0.2120     1.7060    -2.1310 ha         1 J2D       0.126000
     44 H15          2.1380     0.9870    -2.2880 ha         1 J2D       0.122000
     45 H16         -0.3970     0.2230     1.9290 ha         1 J2D       0.126000
     46 H17          1.9580    -0.4800     1.7810 ha         1 J2D       0.122000
     47 H18          3.4340    -2.0340     0.8490 ha         1 J2D       0.142500
     48 H19          4.3260     1.4350    -1.5930 ha         1 J2D       0.142500
@<TRIPOS>BOND
     1     1     2 1   
     2     1     6 1   
     3     1    30 1   
     4     1    31 1   
     5     2     3 1   
     6     2    32 1   
     7     2    33 1   
     8     3     4 1   
     9     4     5 1   
    10     4    34 1   
    11     4    35 1   
    12     5     6 1   
    13     5    36 1   
    14     5    37 1   
    15     6     7 1   
    16     6    38 1   
    17     7     8 2   
    18     7     9 1   
    19     9    10 1   
    20     9    39 1   
    21    10    11 1   
    22    10    15 1   
    23    10    40 1   
    24    11    12 2   
    25    11    13 1   
    26    13    14 1   
    27    13    41 1   
    28    14    42 1   
    29    15    16 ar  
    30    15    18 ar  
    31    16    17 ar  
    32    16    43 1   
    33    17    20 ar  
    34    17    44 1   
    35    18    19 ar  
    36    18    45 1   
    37    19    20 ar  
    38    19    46 1   
    39    20    21 1   
    40    21    22 ar  
    41    21    29 ar  
    42    22    23 ar  
    43    22    47 1   
    44    23    24 1   
    45    23    25 ar  
    46    25    26 1   
    47    25    27 ar  
    48    27    28 1   
    49    27    29 ar  
    50    29    48 1   
@<TRIPOS>SUBSTRUCTURE
     1 J2D         1 TEMP              0 ****  ****    0 ROOT
