@<TRIPOS>MOLECULE
J2E
   63    66     1     0     0
SMALL
No Charge or Current Charge


@<TRIPOS>ATOM
      1 O1          -5.0550    -0.4660    -0.5460 os         1 J2E      -0.318100
      2 C7           3.9270    -0.1200    -0.0820 c3         1 J2E       0.145700
      3 O2           3.8210    -3.0060     0.4330 o          1 J2E      -0.524000
      4 C6           0.5690    -1.4850     0.0130 ce         1 J2E       0.386900
      5 C1          -6.0670    -1.4790    -0.4190 c3         1 J2E       0.144900
      6 N1           1.4370    -0.5330    -0.1010 n2         1 J2E      -0.435300
      7 C5          -0.9140    -1.2450    -0.1200 ca         1 J2E      -0.112900
      8 C4          -1.8580    -2.2850     0.0290 ca         1 J2E      -0.088000
      9 C3          -3.2350    -2.0410    -0.1130 ca         1 J2E      -0.183000
     10 C2          -3.7050    -0.7410    -0.3960 ca         1 J2E       0.124100
     11 C13          3.7600     1.2300     0.6680 c3         1 J2E      -0.083400
     12 C14          2.7980    -2.3460     0.2890 c          1 J2E       0.545000
     13 C12          5.0900     1.9820     0.9100 c3         1 J2E      -0.067900
     14 C11          5.5740     2.8960    -0.2400 c3         1 J2E      -0.070900
     15 C17          1.0030    -3.4040     1.6940 c3         1 J2E      -0.066600
     16 C15          1.3220    -2.7990     0.2960 c5         1 J2E      -0.205300
     17 C10          5.3640     2.3830    -1.6840 c3         1 J2E      -0.070900
     18 C9           5.5590     0.8660    -1.8980 c3         1 J2E      -0.067900
     19 C8           4.2980     0.0270    -1.5800 c3         1 J2E      -0.083400
     20 C18         -1.3940     0.0550    -0.4040 ca         1 J2E      -0.150000
     21 C19         -2.7760     0.3160    -0.5190 ca         1 J2E       0.116100
     22 C20         -2.8240     2.5290     0.2240 c5         1 J2E       0.164300
     23 C21         -3.6230     2.2220     1.5380 c5         1 J2E      -0.092900
     24 C22         -4.1060     3.6210     1.9970 c5         1 J2E      -0.077400
     25 C23         -4.5690     4.2050     0.6430 c5         1 J2E      -0.077400
     26 C24         -3.3090     3.9460    -0.2240 c5         1 J2E      -0.092900
     27 N2           2.7190    -0.9670     0.0590 n          1 J2E      -0.186800
     28 O3          -3.2340     1.5920    -0.8120 os         1 J2E      -0.328100
     29 H1           4.7540    -0.6520     0.4070 h1         1 J2E       0.071700
     30 H2          -7.0620    -1.0420    -0.5740 h1         1 J2E       0.040700
     31 H3          -5.9240    -2.2700    -1.1650 h1         1 J2E       0.040700
     32 H4          -6.0460    -1.9280     0.5830 h1         1 J2E       0.040700
     33 H5          -1.5420    -3.2980     0.2470 ha         1 J2E       0.115000
     34 H6          -3.9200    -2.8760    -0.0000 ha         1 J2E       0.120000
     35 H7           3.0440     1.8770     0.1450 hc         1 J2E       0.050200
     36 H8           3.3210     1.0150     1.6500 hc         1 J2E       0.050200
     37 H9           4.9810     2.6040     1.8080 hc         1 J2E       0.039450
     38 H10          5.8760     1.2550     1.1480 hc         1 J2E       0.039450
     39 H11          5.0740     3.8690    -0.1510 hc         1 J2E       0.036450
     40 H12          6.6420     3.0930    -0.0880 hc         1 J2E       0.036450
     41 H13          1.7840    -4.7410    -0.6410 hc         1 J2E       0.048700
     42 H14          0.1050    -4.2490    -0.8630 hc         1 J2E       0.048700
     43 H15          1.3820    -3.4680    -1.8000 hc         1 J2E       0.048700
     44 H16          1.1580    -2.6620     2.4870 hc         1 J2E       0.048700
     45 H17         -0.0290    -3.7580     1.7740 hc         1 J2E       0.048700
     46 H18          1.6550    -4.2590     1.9150 hc         1 J2E       0.048700
     47 H19          4.3610     2.6680    -2.0250 hc         1 J2E       0.036450
     48 H20          6.0630     2.9220    -2.3360 hc         1 J2E       0.036450
     49 H21          5.8080     0.7040    -2.9540 hc         1 J2E       0.039450
     50 H22          6.4180     0.5030    -1.3200 hc         1 J2E       0.039450
     51 H23          4.4500    -0.9790    -1.9900 hc         1 J2E       0.050200
     52 H24          3.4420     0.4470    -2.1230 hc         1 J2E       0.050200
     53 H25         -0.6890     0.8680    -0.5530 ha         1 J2E       0.138000
     54 H26         -1.7360     2.5210     0.3680 h1         1 J2E       0.051700
     55 H27         -4.4790     1.5630     1.3540 hc         1 J2E       0.054950
     56 H28         -2.9970     1.7340     2.2940 hc         1 J2E       0.054950
     57 H29         -4.9190     3.5630     2.7300 hc         1 J2E       0.046200
     58 H30         -3.2960     4.2100     2.4440 hc         1 J2E       0.046200
     59 H31         -5.4500     3.6810     0.2510 hc         1 J2E       0.046200
     60 H32         -4.8200     5.2700     0.7080 hc         1 J2E       0.046200
     61 H33         -2.5360     4.6960    -0.0190 hc         1 J2E       0.054950
     62 H34         -3.5260     4.0040    -1.2970 hc         1 J2E       0.054950
     63 C16          1.1330    -3.8750    -0.8120 c3         1 J2E      -0.066600
@<TRIPOS>BOND
     1     1     5 1   
     2     1    10 1   
     3     2    11 1   
     4     2    19 1   
     5     2    27 1   
     6     2    29 1   
     7     3    12 2   
     8     4     6 2   
     9     4     7 1   
    10     4    16 1   
    11     5    30 1   
    12     5    31 1   
    13     5    32 1   
    14     6    27 1   
    15     7     8 ar  
    16     7    20 ar  
    17     8     9 ar  
    18     8    33 1   
    19     9    10 ar  
    20     9    34 1   
    21    10    21 ar  
    22    11    13 1   
    23    11    35 1   
    24    11    36 1   
    25    12    16 1   
    26    12    27 1   
    27    13    14 1   
    28    13    37 1   
    29    13    38 1   
    30    14    17 1   
    31    14    39 1   
    32    14    40 1   
    33    15    16 1   
    34    15    44 1   
    35    15    45 1   
    36    15    46 1   
    37    16    63 1   
    38    17    18 1   
    39    17    47 1   
    40    17    48 1   
    41    18    19 1   
    42    18    49 1   
    43    18    50 1   
    44    19    51 1   
    45    19    52 1   
    46    20    21 ar  
    47    20    53 1   
    48    21    28 1   
    49    22    23 1   
    50    22    26 1   
    51    22    28 1   
    52    22    54 1   
    53    23    24 1   
    54    23    55 1   
    55    23    56 1   
    56    24    25 1   
    57    24    57 1   
    58    24    58 1   
    59    25    26 1   
    60    25    59 1   
    61    25    60 1   
    62    26    61 1   
    63    26    62 1   
    64    41    63 1   
    65    42    63 1   
    66    43    63 1   
@<TRIPOS>SUBSTRUCTURE
     1 J2E         1 TEMP              0 ****  ****    0 ROOT
