@<TRIPOS>MOLECULE
J2E
   63    66     1     0     0
SMALL
abcg2


@<TRIPOS>ATOM
      1 O1          -5.0300    -0.5880    -0.2130 os         1 J2E      -0.318100
      2 C7           3.6470    -0.1600    -0.0620 c3         1 J2E       0.145700
      3 O2           3.6610    -3.1080     0.3170 o          1 J2E      -0.524000
      4 C6           0.4670    -1.6610     0.0290 ce         1 J2E       0.386900
      5 C1          -6.0020    -1.6130    -0.1440 c3         1 J2E       0.144900
      6 N1           1.2700    -0.6680    -0.0760 n2         1 J2E      -0.435300
      7 C5          -0.9780    -1.4460    -0.0300 ca         1 J2E      -0.112900
      8 C4          -1.8940    -2.4790     0.0820 ca         1 J2E      -0.088000
      9 C3          -3.2630    -2.2230     0.0240 ca         1 J2E      -0.183000
     10 C2          -3.7360    -0.9340    -0.1440 ca         1 J2E       0.124100
     11 C13          3.5610     0.8350     1.0980 c3         1 J2E      -0.083400
     12 C14          2.6440    -2.4530     0.1930 c          1 J2E       0.545000
     13 C12          4.8580     1.6200     1.3010 c3         1 J2E      -0.067900
     14 C11          4.9950     2.9030     0.4810 c3         1 J2E      -0.070900
     15 C17          0.9380    -3.6560     1.5450 c3         1 J2E      -0.066600
     16 C15          1.2080    -2.9640     0.2060 c5         1 J2E      -0.205300
     17 C10          4.4740     2.8350    -0.9550 c3         1 J2E      -0.070900
     18 C9           4.7500     1.5220    -1.6890 c3         1 J2E      -0.067900
     19 C8           3.6840     0.4530    -1.4610 c3         1 J2E      -0.083400
     20 C18         -1.4600    -0.1370    -0.2010 ca         1 J2E      -0.150000
     21 C19         -2.8110     0.1320    -0.2580 ca         1 J2E       0.116100
     22 C20         -2.4920     2.4810    -0.5460 c5         1 J2E       0.164300
     23 C21         -1.8770     2.8750     0.8120 c5         1 J2E      -0.092900
     24 C22         -2.6950     4.0790     1.3270 c5         1 J2E      -0.077400
     25 C23         -3.9170     4.1620     0.4090 c5         1 J2E      -0.077400
     26 C24         -3.3730     3.6630    -0.9250 c5         1 J2E      -0.092900
     27 N2           2.5570    -1.1160     0.0140 n          1 J2E      -0.186800
     28 O3          -3.3540     1.3480    -0.4280 os         1 J2E      -0.328100
     29 H1           4.5530    -0.7560     0.0760 h1         1 J2E       0.071700
     30 H2          -6.9690    -1.1290    -0.2520 h1         1 J2E       0.040700
     31 H3          -5.8790    -2.3450    -0.9460 h1         1 J2E       0.040700
     32 H4          -5.9760    -2.1360     0.8160 h1         1 J2E       0.040700
     33 H5          -1.5770    -3.5020     0.2190 ha         1 J2E       0.115000
     34 H6          -3.9470    -3.0550     0.1130 ha         1 J2E       0.120000
     35 H7           2.7100     1.5080     0.9610 hc         1 J2E       0.050200
     36 H8           3.3570     0.2590     2.0050 hc         1 J2E       0.050200
     37 H9           4.9520     1.8820     2.3570 hc         1 J2E       0.039450
     38 H10          5.7020     0.9540     1.0960 hc         1 J2E       0.039450
     39 H11          4.4750     3.7170     0.9950 hc         1 J2E       0.036450
     40 H12          6.0510     3.1860     0.4700 hc         1 J2E       0.036450
     41 H13          1.7210    -4.7580    -0.8780 hc         1 J2E       0.048700
     42 H14          0.0160    -4.3340    -0.9990 hc         1 J2E       0.048700
     43 H15          1.2110    -3.4310    -1.9280 hc         1 J2E       0.048700
     44 H16          1.0330    -2.9650     2.3830 hc         1 J2E       0.048700
     45 H17         -0.0610    -4.0860     1.5760 hc         1 J2E       0.048700
     46 H18          1.6550    -4.4650     1.6860 hc         1 J2E       0.048700
     47 H19          3.3950     3.0160    -0.9660 hc         1 J2E       0.036450
     48 H20          4.9130     3.6660    -1.5140 hc         1 J2E       0.036450
     49 H21          4.7810     1.7190    -2.7630 hc         1 J2E       0.039450
     50 H22          5.7420     1.1370    -1.4290 hc         1 J2E       0.039450
     51 H23          3.8330    -0.3600    -2.1760 hc         1 J2E       0.050200
     52 H24          2.7040     0.8860    -1.6840 hc         1 J2E       0.050200
     53 H25         -0.7390     0.6640    -0.2800 ha         1 J2E       0.138000
     54 H26         -1.7350     2.2770    -1.3100 h1         1 J2E       0.051700
     55 H27         -1.9090     2.0380     1.5120 hc         1 J2E       0.054950
     56 H28         -0.8230     3.1310     0.6920 hc         1 J2E       0.054950
     57 H29         -2.9660     3.9750     2.3780 hc         1 J2E       0.046200
     58 H30         -2.1060     4.9940     1.2380 hc         1 J2E       0.046200
     59 H31         -4.7140     3.5030     0.7640 hc         1 J2E       0.046200
     60 H32         -4.3320     5.1680     0.3480 hc         1 J2E       0.046200
     61 H33         -2.7370     4.4310    -1.3740 hc         1 J2E       0.054950
     62 H34         -4.1360     3.4030    -1.6610 hc         1 J2E       0.054950
     63 C16          1.0240    -3.9250    -0.9740 c3         1 J2E      -0.066600
@<TRIPOS>BOND
     1     1     5 1   
     2     1    10 1   
     3     2    11 1   
     4     2    19 1   
     5     2    27 1   
     6     2    29 1   
     7     3    12 2   
     8     4     6 2   
     9     4     7 1   
    10     4    16 1   
    11     5    30 1   
    12     5    31 1   
    13     5    32 1   
    14     6    27 1   
    15     7     8 ar  
    16     7    20 ar  
    17     8     9 ar  
    18     8    33 1   
    19     9    10 ar  
    20     9    34 1   
    21    10    21 ar  
    22    11    13 1   
    23    11    35 1   
    24    11    36 1   
    25    12    16 1   
    26    12    27 1   
    27    13    14 1   
    28    13    37 1   
    29    13    38 1   
    30    14    17 1   
    31    14    39 1   
    32    14    40 1   
    33    15    16 1   
    34    15    44 1   
    35    15    45 1   
    36    15    46 1   
    37    16    63 1   
    38    17    18 1   
    39    17    47 1   
    40    17    48 1   
    41    18    19 1   
    42    18    49 1   
    43    18    50 1   
    44    19    51 1   
    45    19    52 1   
    46    20    21 ar  
    47    20    53 1   
    48    21    28 1   
    49    22    23 1   
    50    22    26 1   
    51    22    28 1   
    52    22    54 1   
    53    23    24 1   
    54    23    55 1   
    55    23    56 1   
    56    24    25 1   
    57    24    57 1   
    58    24    58 1   
    59    25    26 1   
    60    25    59 1   
    61    25    60 1   
    62    26    61 1   
    63    26    62 1   
    64    41    63 1   
    65    42    63 1   
    66    43    63 1   
@<TRIPOS>SUBSTRUCTURE
     1 J2E         1 TEMP              0 ****  ****    0 ROOT
