@<TRIPOS>MOLECULE
J2F
   38    39     1     0     0
SMALL
No Charge or Current Charge


@<TRIPOS>ATOM
      1 N1          24.3470   -12.6130    -1.5410 n8         1 J2F      -0.973200
      2 C4          23.2700   -10.0060    -5.5180 ca         1 J2F      -0.066000
      3 C5          22.7480    -9.8860    -6.8180 ca         1 J2F      -0.170000
      4 C6          21.6660   -10.6810    -7.2270 ca         1 J2F       0.104100
      5 C7          21.1020   -11.6050    -6.3210 ca         1 J2F      -0.170000
      6 C8          21.6240   -11.7240    -5.0210 ca         1 J2F      -0.066000
      7 C10         19.7890   -10.8740   -10.4840 ca         1 J2F      -0.003300
      8 C13         19.3190   -10.0580   -13.1580 ca         1 J2F      -0.127000
      9 C15         19.2440   -11.7900   -11.4300 ca         1 J2F      -0.175200
     10 C1          24.1150   -12.3490    -3.0090 c3         1 J2F       0.021500
     11 C11         20.0610    -9.5500   -10.9010 ca         1 J2F      -0.097000
     12 C12         19.8300    -9.1460   -12.2260 ca         1 J2F      -0.074000
     13 C14         19.0260   -11.3730   -12.7640 ca         1 J2F      -0.060000
     14 C16         25.4050   -12.3490    -3.9370 c          1 J2F       0.717000
     15 C2          23.2710   -11.0600    -3.1990 c3         1 J2F      -0.015100
     16 C3          22.7110   -10.9270    -4.6120 ca         1 J2F      -0.061300
     17 C9          20.0890   -11.2820    -9.0310 c3         1 J2F       0.206900
     18 N2          18.8800   -13.1910   -11.0580 no         1 J2F       0.692200
     19 O2          19.0880   -14.0810   -11.8920 o          1 J2F      -0.404000
     20 O3          18.2460   -13.3680   -10.0100 o          1 J2F      -0.404000
     21 O5          26.1490   -11.3750    -3.9250 o          1 J2F      -0.724000
     22 H1          23.4430   -12.7130    -1.0660 hn         1 J2F       0.363500
     23 H2          24.7900   -13.5330    -1.4310 hn         1 J2F       0.363500
     24 H4          24.1100    -9.3840    -5.2170 ha         1 J2F       0.123000
     25 H5          23.1860    -9.1730    -7.5120 ha         1 J2F       0.108000
     26 H6          20.2640   -12.2360    -6.6030 ha         1 J2F       0.108000
     27 H7          21.1840   -12.4390    -4.3280 ha         1 J2F       0.123000
     28 H8          19.1420    -9.7460   -14.1850 ha         1 J2F       0.121000
     29 H9          23.4910   -13.1860    -3.3520 h1         1 J2F       0.005700
     30 H10         20.4600    -8.8240   -10.1970 ha         1 J2F       0.153000
     31 H11         20.0500    -8.1240   -12.5290 ha         1 J2F       0.121000
     32 H12         18.6140   -12.0640   -13.4980 ha         1 J2F       0.142000
     33 H14         23.8760   -10.1830    -2.9390 hc         1 J2F       0.038700
     34 H15         22.4360   -11.0680    -2.4880 hc         1 J2F       0.038700
     35 H16         19.1890   -11.1150    -8.4250 h1         1 J2F       0.065200
     36 H17         20.3380   -12.3500    -8.9900 h1         1 J2F       0.065200
     37 OXT         25.6440   -13.3590    -4.5870 o          1 J2F      -0.724000
     38 O1          21.1970   -10.5180    -8.5140 os         1 J2F      -0.366100
@<TRIPOS>BOND
     1     1    10 1   
     2     1    22 1   
     3     1    23 1   
     4     2     3 ar  
     5     2    16 ar  
     6     2    24 1   
     7     3     4 ar  
     8     3    25 1   
     9     4     5 ar  
    10     4    38 1   
    11     5     6 ar  
    12     5    26 1   
    13     6    16 ar  
    14     6    27 1   
    15     7     9 ar  
    16     7    11 ar  
    17     7    17 1   
    18     8    12 ar  
    19     8    13 ar  
    20     8    28 1   
    21     9    13 ar  
    22     9    18 1   
    23    10    14 1   
    24    10    15 1   
    25    10    29 1   
    26    11    12 ar  
    27    11    30 1   
    28    12    31 1   
    29    13    32 1   
    30    14    21 1   
    31    14    37 1   
    32    15    16 1   
    33    15    33 1   
    34    15    34 1   
    35    17    35 1   
    36    17    36 1   
    37    17    38 1   
    38    18    19 1   
    39    18    20 1   
@<TRIPOS>SUBSTRUCTURE
     1 J2F         1 TEMP              0 ****  ****    0 ROOT
