@<TRIPOS>MOLECULE
J2F
   38    39     1     0     0
SMALL
bcc


@<TRIPOS>ATOM
      1 N1          24.4350   -12.3920    -1.6100 n8         1 J2F      -0.862800
      2 C4          23.1280   -10.1790    -5.5140 ca         1 J2F      -0.084000
      3 C5          22.7000   -10.0660    -6.8250 ca         1 J2F      -0.188000
      4 C6          21.6880   -10.8970    -7.3050 ca         1 J2F       0.104100
      5 C7          21.1210   -11.8410    -6.4550 ca         1 J2F      -0.188000
      6 C8          21.5650   -11.9340    -5.1400 ca         1 J2F      -0.084000
      7 C10         19.9120   -10.9570   -10.4810 ca         1 J2F      -0.003300
      8 C13         19.3800   -10.0040   -13.0860 ca         1 J2F      -0.145000
      9 C15         19.0670   -11.6390   -11.3640 ca         1 J2F      -0.175200
     10 C1          24.1610   -12.2630    -3.0390 c3         1 J2F       0.021500
     11 C11         20.4850    -9.7800   -10.9580 ca         1 J2F      -0.115000
     12 C12         20.2210    -9.3060   -12.2340 ca         1 J2F      -0.092000
     13 C14         18.8070   -11.1840   -12.6500 ca         1 J2F      -0.078000
     14 C16         25.4440   -11.8100    -3.7840 c          1 J2F       0.927600
     15 C2          23.0340   -11.2400    -3.2180 c3         1 J2F      -0.015100
     16 C3          22.5670   -11.1120    -4.6400 ca         1 J2F      -0.061300
     17 C9          20.2220   -11.4360    -9.0840 c3         1 J2F       0.183700
     18 N2          18.4000   -12.8720   -10.9700 no         1 J2F       0.312200
     19 O2          18.0960   -13.6560   -11.8370 o          1 J2F      -0.214000
     20 O3          18.1680   -13.0450    -9.7960 o          1 J2F      -0.214000
     21 O5          25.9340   -10.7150    -3.4410 o          1 J2F      -0.829300
     22 H1          23.6250   -12.7970    -1.1560 hn         1 J2F       0.308300
     23 H2          25.1830   -13.0610    -1.4650 hn         1 J2F       0.308300
     24 H4          23.9160    -9.5270    -5.1570 ha         1 J2F       0.141000
     25 H5          23.1430    -9.3290    -7.4830 ha         1 J2F       0.126000
     26 H6          20.3360   -12.5070    -6.7870 ha         1 J2F       0.126000
     27 H7          21.1060   -12.6690    -4.4890 ha         1 J2F       0.141000
     28 H8          19.1690    -9.6370   -14.0810 ha         1 J2F       0.139000
     29 H9          23.8280   -13.2110    -3.4870 h1         1 J2F       0.005700
     30 H10         21.1530    -9.2190   -10.3230 ha         1 J2F       0.171000
     31 H11         20.6800    -8.3830   -12.5610 ha         1 J2F       0.139000
     32 H12         18.1480   -11.7380   -13.3040 ha         1 J2F       0.160000
     33 H14         23.3810   -10.2750    -2.8430 hc         1 J2F       0.038700
     34 H15         22.1890   -11.5390    -2.5900 hc         1 J2F       0.038700
     35 H16         19.3490   -11.2820    -8.4410 h1         1 J2F       0.065200
     36 H17         20.4450   -12.5080    -9.0850 h1         1 J2F       0.065200
     37 OXT         25.8780   -12.5810    -4.6630 o          1 J2F      -0.829300
     38 O1          21.3260   -10.7130    -8.5970 os         1 J2F      -0.342900
@<TRIPOS>BOND
     1     1    10 1   
     2     1    22 1   
     3     1    23 1   
     4     2     3 ar  
     5     2    16 ar  
     6     2    24 1   
     7     3     4 ar  
     8     3    25 1   
     9     4     5 ar  
    10     4    38 1   
    11     5     6 ar  
    12     5    26 1   
    13     6    16 ar  
    14     6    27 1   
    15     7     9 ar  
    16     7    11 ar  
    17     7    17 1   
    18     8    12 ar  
    19     8    13 ar  
    20     8    28 1   
    21     9    13 ar  
    22     9    18 1   
    23    10    14 1   
    24    10    15 1   
    25    10    29 1   
    26    11    12 ar  
    27    11    30 1   
    28    12    31 1   
    29    13    32 1   
    30    14    21 1   
    31    14    37 1   
    32    15    16 1   
    33    15    33 1   
    34    15    34 1   
    35    17    35 1   
    36    17    36 1   
    37    17    38 1   
    38    18    19 1   
    39    18    20 1   
@<TRIPOS>SUBSTRUCTURE
     1 J2F         1 TEMP              0 ****  ****    0 ROOT
