@<TRIPOS>MOLECULE
J2G
   51    53     1     0     0
SMALL
No Charge or Current Charge


@<TRIPOS>ATOM
      1 CAA          0.6100    -3.3850    -2.0200 c3         1 J2G       0.164900
      2 CAD          2.5420    -1.2480    -1.8250 ca         1 J2G      -0.240000
      3 CAE          1.8040    -1.6730    -0.7000 ca         1 J2G       0.189100
      4 CAF          2.0430    -1.0640     0.5460 ca         1 J2G      -0.358500
      5 CAI         -0.8190     0.2270     1.1800 ca         1 J2G       0.353000
      6 CAJ         -0.1680     1.4270     1.5150 ca         1 J2G      -0.151000
      7 CAK         -0.5540     2.6390     0.9220 ca         1 J2G      -0.018000
      8 CAM          3.5020    -0.2310    -1.7100 ca         1 J2G       0.005000
      9 CAN          3.7450     0.3870    -0.4660 ca         1 J2G      -0.183600
     10 CAO          3.0050    -0.0370     0.6580 ca         1 J2G       0.039000
     11 CAQ         -1.8960     0.2440     0.2480 ca         1 J2G       0.171000
     12 CAR         -2.2730     1.4690    -0.3390 ca         1 J2G      -0.069000
     13 CAS         -1.6020     2.6700    -0.0200 ca         1 J2G      -0.234300
     14 CAT         -2.0370     3.9930    -0.6620 c3         1 J2G       0.360300
     15 CAV          4.7760     1.4870    -0.3390 c          1 J2G       0.717600
     16 CBA         -2.9330    -1.2530    -1.4990 c6         1 J2G       0.183300
     17 CBB         -3.2010    -2.7630    -1.7100 c6         1 J2G      -0.079400
     18 CBC         -3.6420    -1.4290     0.8810 c6         1 J2G       0.183300
     19 CBD         -3.9080    -2.9450     0.7140 c6         1 J2G      -0.079400
     20 CBE         -4.2910    -3.2830    -0.7450 c6         1 J2G      -0.074400
     21 FAL         -2.4880     3.8240    -1.9260 f          1 J2G      -0.120333
     22 FAU         -3.0340     4.5740     0.0410 f          1 J2G      -0.120333
     23 FAX         -1.0260     4.8900    -0.7310 f          1 J2G      -0.120333
     24 NAH         -0.4360    -0.9960     1.7250 nu         1 J2G      -0.882100
     25 NAZ         -2.6040    -0.9540    -0.0760 nh         1 J2G      -0.778400
     26 OAB          0.8500    -2.6650    -0.7990 os         1 J2G      -0.365100
     27 OAC          0.9350    -2.9880     2.0590 o          1 J2G      -0.546000
     28 OAP          1.5630    -0.7700     3.1730 o          1 J2G      -0.546000
     29 OAW          5.3930     1.8280    -1.3380 o          1 J2G      -0.713000
     30 OAY          4.9560     1.9930     0.7590 o          1 J2G      -0.713000
     31 SAG          1.1140    -1.5360     2.0070 sy         1 J2G       1.172600
     32 HAB         -0.1390    -4.1690    -1.8580 h1         1 J2G       0.036700
     33 HAA          0.2370    -2.7110    -2.8030 h1         1 J2G       0.036700
     34 HAC          1.5290    -3.8670    -2.3760 h1         1 J2G       0.036700
     35 HAD          2.3850    -1.6910    -2.8040 ha         1 J2G       0.099000
     36 HAJ          0.6380     1.4310     2.2410 ha         1 J2G       0.161000
     37 HAK         -0.0340     3.5540     1.2030 ha         1 J2G       0.139000
     38 HAM          4.0560     0.0770    -2.5960 ha         1 J2G       0.133000
     39 HAO          3.1830     0.4370     1.6220 ha         1 J2G       0.161000
     40 HAR         -3.1040     1.4860    -1.0380 ha         1 J2G       0.117000
     41 HBC         -3.4980    -2.9470    -2.7500 hc         1 J2G       0.047200
     42 HBD         -2.2730    -3.3240    -1.5450 hc         1 J2G       0.047200
     43 HBF         -4.5790    -0.8760     0.7190 h1         1 J2G       0.037200
     44 HBE         -3.3230    -1.2380     1.9160 h1         1 J2G       0.037200
     45 HBG         -3.0120    -3.5090     1.0040 hc         1 J2G       0.047200
     46 HBH         -4.7110    -3.2570     1.3950 hc         1 J2G       0.047200
     47 HBJ         -5.2580    -2.8240    -0.9940 hc         1 J2G       0.035200
     48 HBI         -4.4140    -4.3680    -0.8630 hc         1 J2G       0.035200
     49 HAH         -0.8680    -1.7590     1.2200 hn         1 J2G       0.524000
     50 HBA         -2.1020    -0.9460    -2.1510 h1         1 J2G       0.037200
     51 HBB         -3.8230    -0.6840    -1.8060 h1         1 J2G       0.037200
@<TRIPOS>BOND
     1     1    26 1   
     2     1    32 1   
     3     1    33 1   
     4     1    34 1   
     5     2     3 ar  
     6     2     8 ar  
     7     2    35 1   
     8     3     4 ar  
     9     3    26 1   
    10     4    10 ar  
    11     4    31 1   
    12     5     6 ar  
    13     5    11 ar  
    14     5    24 1   
    15     6     7 ar  
    16     6    36 1   
    17     7    13 ar  
    18     7    37 1   
    19     8     9 ar  
    20     8    38 1   
    21     9    10 ar  
    22     9    15 1   
    23    10    39 1   
    24    11    12 ar  
    25    11    25 1   
    26    12    13 ar  
    27    12    40 1   
    28    13    14 1   
    29    14    21 1   
    30    14    22 1   
    31    14    23 1   
    32    15    29 1   
    33    15    30 1   
    34    16    17 1   
    35    16    25 1   
    36    16    50 1   
    37    16    51 1   
    38    17    20 1   
    39    17    41 1   
    40    17    42 1   
    41    18    19 1   
    42    18    25 1   
    43    18    43 1   
    44    18    44 1   
    45    19    20 1   
    46    19    45 1   
    47    19    46 1   
    48    20    47 1   
    49    20    48 1   
    50    24    31 1   
    51    24    49 1   
    52    27    31 2   
    53    28    31 2   
@<TRIPOS>SUBSTRUCTURE
     1 J2G         1 TEMP              0 ****  ****    0 ROOT
