@<TRIPOS>MOLECULE
J2G
   51    53     1     0     0
SMALL
abcg2


@<TRIPOS>ATOM
      1 CAA          0.5290    -2.8170    -2.1840 c3         1 J2G       0.164900
      2 CAD          2.6710    -1.0280    -1.8210 ca         1 J2G      -0.240000
      3 CAE          1.8840    -1.4830    -0.7680 ca         1 J2G       0.189100
      4 CAF          2.1520    -0.9930     0.5200 ca         1 J2G      -0.358500
      5 CAI         -0.7790     0.1030     1.0020 ca         1 J2G       0.353000
      6 CAJ         -0.1320     1.3000     1.2800 ca         1 J2G      -0.151000
      7 CAK         -0.5700     2.4790     0.6950 ca         1 J2G      -0.018000
      8 CAM          3.6940    -0.1240    -1.5810 ca         1 J2G       0.005000
      9 CAN          3.9650     0.3650    -0.3070 ca         1 J2G      -0.183600
     10 CAO          3.1730    -0.0830     0.7410 ca         1 J2G       0.039000
     11 CAQ         -1.9090     0.0960     0.1620 ca         1 J2G       0.171000
     12 CAR         -2.3360     1.2810    -0.4080 ca         1 J2G      -0.069000
     13 CAS         -1.6620     2.4740    -0.1570 ca         1 J2G      -0.234300
     14 CAT         -2.1660     3.7270    -0.7920 c3         1 J2G       0.360300
     15 CAV          5.0860     1.3630    -0.0620 c          1 J2G       0.717600
     16 CBA         -2.9320    -1.4540    -1.4070 c6         1 J2G       0.183300
     17 CBB         -3.3450    -2.9130    -1.5180 c6         1 J2G      -0.079400
     18 CBC         -3.6410    -1.3770     0.9170 c6         1 J2G       0.183300
     19 CBD         -4.0940    -2.8270     0.8660 c6         1 J2G      -0.079400
     20 CBE         -4.4810    -3.2280    -0.5520 c6         1 J2G      -0.074400
     21 FAL         -2.2830     3.6000    -2.1230 f          1 J2G      -0.120333
     22 FAU         -3.3870     4.0610    -0.3420 f          1 J2G      -0.120333
     23 FAX         -1.3720     4.7780    -0.5680 f          1 J2G      -0.120333
     24 NAH         -0.3960    -1.1380     1.5120 nu         1 J2G      -0.882100
     25 NAZ         -2.5510    -1.1470    -0.0340 nh         1 J2G      -0.778400
     26 OAB          0.8750    -2.3470    -0.8910 os         1 J2G      -0.365100
     27 OAC          1.1790    -2.9860     1.9810 o          1 J2G      -0.546000
     28 OAP          1.5660    -0.7580     3.0460 o          1 J2G      -0.546000
     29 OAW          5.7590     1.6940    -1.0550 o          1 J2G      -0.713000
     30 OAY          5.2290     1.7590     1.1100 o          1 J2G      -0.713000
     31 SAG          1.1730    -1.5380     1.8840 sy         1 J2G       1.172600
     32 HAB         -0.3080    -3.4960    -2.0470 h1         1 J2G       0.036700
     33 HAA          0.2220    -1.9970    -2.8370 h1         1 J2G       0.036700
     34 HAC          1.3530    -3.3600    -2.6490 h1         1 J2G       0.036700
     35 HAD          2.4990    -1.3720    -2.8320 ha         1 J2G       0.099000
     36 HAJ          0.7150     1.3400     1.9500 ha         1 J2G       0.161000
     37 HAK         -0.0400     3.3930     0.9210 ha         1 J2G       0.139000
     38 HAM          4.2970     0.2130    -2.4140 ha         1 J2G       0.133000
     39 HAO          3.3620     0.2880     1.7390 ha         1 J2G       0.161000
     40 HAR         -3.2030     1.2660    -1.0580 ha         1 J2G       0.117000
     41 HBC         -3.6410    -3.1220    -2.5480 hc         1 J2G       0.047200
     42 HBD         -2.4840    -3.5500    -1.2960 hc         1 J2G       0.047200
     43 HBF         -4.4900    -0.7080     0.7040 h1         1 J2G       0.037200
     44 HBE         -3.2890    -1.1300     1.9210 h1         1 J2G       0.037200
     45 HBG         -3.2800    -3.4660     1.2220 hc         1 J2G       0.047200
     46 HBH         -4.9320    -2.9640     1.5520 hc         1 J2G       0.047200
     47 HBJ         -5.3770    -2.6770    -0.8560 hc         1 J2G       0.035200
     48 HBI         -4.7360    -4.2890    -0.5940 hc         1 J2G       0.035200
     49 HAH         -0.9070    -1.8890     1.0430 hn         1 J2G       0.524000
     50 HBA         -2.0790    -1.2490    -2.0570 h1         1 J2G       0.037200
     51 HBB         -3.7640    -0.8210    -1.7530 h1         1 J2G       0.037200
@<TRIPOS>BOND
     1     1    26 1   
     2     1    32 1   
     3     1    33 1   
     4     1    34 1   
     5     2     3 ar  
     6     2     8 ar  
     7     2    35 1   
     8     3     4 ar  
     9     3    26 1   
    10     4    10 ar  
    11     4    31 1   
    12     5     6 ar  
    13     5    11 ar  
    14     5    24 1   
    15     6     7 ar  
    16     6    36 1   
    17     7    13 ar  
    18     7    37 1   
    19     8     9 ar  
    20     8    38 1   
    21     9    10 ar  
    22     9    15 1   
    23    10    39 1   
    24    11    12 ar  
    25    11    25 1   
    26    12    13 ar  
    27    12    40 1   
    28    13    14 1   
    29    14    21 1   
    30    14    22 1   
    31    14    23 1   
    32    15    29 1   
    33    15    30 1   
    34    16    17 1   
    35    16    25 1   
    36    16    50 1   
    37    16    51 1   
    38    17    20 1   
    39    17    41 1   
    40    17    42 1   
    41    18    19 1   
    42    18    25 1   
    43    18    43 1   
    44    18    44 1   
    45    19    20 1   
    46    19    45 1   
    47    19    46 1   
    48    20    47 1   
    49    20    48 1   
    50    24    31 1   
    51    24    49 1   
    52    27    31 2   
    53    28    31 2   
@<TRIPOS>SUBSTRUCTURE
     1 J2G         1 TEMP              0 ****  ****    0 ROOT
