@<TRIPOS>MOLECULE
J2H
   66    71     1     0     0
SMALL
No Charge or Current Charge


@<TRIPOS>ATOM
      1 C10          9.4360     0.0380    -0.7880 ca         1 J2H      -0.111500
      2 C11          9.9590    -1.2030    -0.3910 ca         1 J2H      -0.106000
      3 C12          9.0980    -2.2000     0.0940 ca         1 J2H      -0.111500
      4 C13          7.7160    -1.9560     0.1830 ca         1 J2H      -0.097500
      5 C14          5.0250     0.3520    -1.0750 ca         1 J2H      -0.095000
      6 C36         -3.0260     0.2160     1.8780 c6         1 J2H       0.171300
      7 C37         -1.5240    -0.1530     1.8270 c6         1 J2H      -0.076400
      8 C24         -0.8600     0.0260     0.4240 c5         1 J2H       0.061400
      9 C25         -1.8010    -0.5910    -0.6610 c6         1 J2H      -0.076400
     10 C16          0.8960     1.5490    -0.0050 c          1 J2H       0.632000
     11 C15          3.6440     0.5960    -0.9880 ca         1 J2H      -0.092000
     12 C02          0.5240    -0.7100     0.4050 c          1 J2H       0.566000
     13 C04          2.8850     0.0440     0.0630 ca         1 J2H      -0.036000
     14 C05          3.5350    -0.7560     1.0230 ca         1 J2H      -0.092000
     15 C06          4.9160    -0.9990     0.9340 ca         1 J2H      -0.095000
     16 C07          5.6920    -0.4510    -0.1170 cp         1 J2H      -0.025000
     17 C08          7.1640    -0.7100    -0.2120 cp         1 J2H      -0.038000
     18 C09          8.0540     0.2810    -0.7000 ca         1 J2H      -0.097500
     19 C18         -1.3540     2.5550     0.0190 ca         1 J2H       0.259900
     20 C20         -2.6510     3.8890    -1.3240 ca         1 J2H       0.121900
     21 C21         -2.9790     4.6780    -0.2090 ca         1 J2H      -0.218000
     22 C22         -2.4170     4.3210     1.0290 ca         1 J2H       0.121900
     23 C26         -3.2920    -0.2050    -0.5130 c6         1 J2H       0.171300
     24 C29         -6.1690    -1.1240     0.0460 ca         1 J2H       0.341300
     25 C31         -7.6340    -1.1130    -1.7640 ca         1 J2H       0.329900
     26 C32         -7.8070    -2.5040    -1.6930 ca         1 J2H      -0.157000
     27 C33         -7.1270    -3.2290    -0.7030 ca         1 J2H      -0.083000
     28 C34         -6.2900    -2.5320     0.1900 ca         1 J2H      -0.094300
     29 C35         -5.5390    -3.2990     1.2750 c3         1 J2H      -0.044800
     30 N03          1.4670     0.2930     0.1550 n          1 J2H      -0.212000
     31 N17         -0.4780     1.4400     0.1360 n          1 J2H      -0.418300
     32 N19         -1.8320     2.8250    -1.2150 nb         1 J2H      -0.166500
     33 N23         -1.5970     3.2580     1.1470 nb         1 J2H      -0.166500
     34 N27         -3.8000    -0.5160     0.8470 n3         1 J2H      -0.729600
     35 N30         -6.8350    -0.4290    -0.9160 nb         1 J2H      -0.675000
     36 O38          1.4940     2.5940    -0.2190 o          1 J2H      -0.514000
     37 H101        10.1010     0.8130    -1.1620 ha         1 J2H       0.113000
     38 H111        11.0280    -1.3920    -0.4600 ha         1 J2H       0.113000
     39 H121         9.5000    -3.1640     0.3990 ha         1 J2H       0.113000
     40 H131         7.0670    -2.7470     0.5500 ha         1 J2H       0.115000
     41 H141         5.5800     0.7780    -1.9070 ha         1 J2H       0.119000
     42 H361        -3.4070    -0.0300     2.8800 h1         1 J2H       0.041700
     43 H362        -3.1560     1.2980     1.7510 h1         1 J2H       0.041700
     44 H371        -0.9750     0.4300     2.5790 hc         1 J2H       0.071950
     45 H372        -1.4320    -1.2030     2.1350 hc         1 J2H       0.071950
     46 H252        -1.4470    -0.3180    -1.6640 hc         1 J2H       0.071950
     47 H251        -1.7390    -1.6860    -0.6080 hc         1 J2H       0.071950
     48 H151         3.1650     1.2060    -1.7510 ha         1 J2H       0.125500
     49 H051         2.9760    -1.1830     1.8530 ha         1 J2H       0.125500
     50 H061         5.3910    -1.6070     1.6990 ha         1 J2H       0.119000
     51 H091         7.6730     1.2540    -1.0000 ha         1 J2H       0.115000
     52 H201        -3.0460     4.1100    -2.3150 h4         1 J2H       0.032600
     53 H211        -3.6400     5.5360    -0.3000 ha         1 J2H       0.141000
     54 H221        -2.6240     4.8890     1.9340 h4         1 J2H       0.032600
     55 H261        -3.4340     0.8610    -0.7350 h1         1 J2H       0.041700
     56 H262        -3.8620    -0.7610    -1.2710 h1         1 J2H       0.041700
     57 H282        -5.4890     0.7770     0.8160 h1         1 J2H       0.048200
     58 H281        -5.5810    -0.5040     2.0110 h1         1 J2H       0.048200
     59 H311        -8.1520    -0.5280    -2.5230 h4         1 J2H       0.018100
     60 H321        -8.4610    -3.0070    -2.3990 ha         1 J2H       0.123000
     61 H331        -7.2480    -4.3080    -0.6320 ha         1 J2H       0.118000
     62 H352        -4.4560    -3.2640     1.1040 hc         1 J2H       0.048700
     63 H353        -5.7370    -2.8810     2.2690 hc         1 J2H       0.048700
     64 H351        -5.8310    -4.3560     1.3020 hc         1 J2H       0.048700
     65 O01          0.7640    -1.9040     0.5460 o          1 J2H      -0.488000
     66 C28         -5.2700    -0.2870     0.9810 c3         1 J2H       0.120500
@<TRIPOS>BOND
     1     1     2 ar  
     2     1    18 ar  
     3     1    37 1   
     4     2     3 ar  
     5     2    38 1   
     6     3     4 ar  
     7     3    39 1   
     8     4    17 ar  
     9     4    40 1   
    10     5    11 ar  
    11     5    16 ar  
    12     5    41 1   
    13     6     7 1   
    14     6    34 1   
    15     6    42 1   
    16     6    43 1   
    17     7     8 1   
    18     7    44 1   
    19     7    45 1   
    20     8     9 1   
    21     8    12 1   
    22     8    31 1   
    23     9    23 1   
    24     9    46 1   
    25     9    47 1   
    26    10    30 1   
    27    10    31 1   
    28    10    36 2   
    29    11    13 ar  
    30    11    48 1   
    31    12    30 1   
    32    12    65 2   
    33    13    14 ar  
    34    13    30 1   
    35    14    15 ar  
    36    14    49 1   
    37    15    16 ar  
    38    15    50 1   
    39    16    17 1   
    40    17    18 ar  
    41    18    51 1   
    42    19    31 1   
    43    19    32 ar  
    44    19    33 ar  
    45    20    21 ar  
    46    20    32 ar  
    47    20    52 1   
    48    21    22 ar  
    49    21    53 1   
    50    22    33 ar  
    51    22    54 1   
    52    23    34 1   
    53    23    55 1   
    54    23    56 1   
    55    24    28 ar  
    56    24    35 ar  
    57    24    66 1   
    58    25    26 ar  
    59    25    35 ar  
    60    25    59 1   
    61    26    27 ar  
    62    26    60 1   
    63    27    28 ar  
    64    27    61 1   
    65    28    29 1   
    66    29    62 1   
    67    29    63 1   
    68    29    64 1   
    69    34    66 1   
    70    57    66 1   
    71    58    66 1   
@<TRIPOS>SUBSTRUCTURE
     1 J2H         1 TEMP              0 ****  ****    0 ROOT
