@<TRIPOS>MOLECULE
J2H
   66    71     1     0     0
SMALL
bcc


@<TRIPOS>ATOM
      1 C10          9.1180    -0.3510    -1.0490 ca         1 J2H      -0.129500
      2 C11          9.6230    -1.4470    -0.3630 ca         1 J2H      -0.124000
      3 C12          8.7680    -2.2320     0.4000 ca         1 J2H      -0.129500
      4 C13          7.4190    -1.9220     0.4770 ca         1 J2H      -0.115500
      5 C14          4.7770    -0.0140    -1.2480 ca         1 J2H      -0.113000
      6 C36         -3.1330     0.3260     1.5820 c6         1 J2H       0.171300
      7 C37         -1.6560    -0.0370     1.5930 c6         1 J2H      -0.076400
      8 C24         -0.9640     0.1930     0.2430 c5         1 J2H       0.061400
      9 C25         -1.8320    -0.3550    -0.8990 c6         1 J2H      -0.076400
     10 C16          0.8350     1.6920    -0.0020 c          1 J2H       0.841500
     11 C15          3.4260     0.2850    -1.1840 ca         1 J2H      -0.110000
     12 C02          0.3760    -0.5340     0.2330 c          1 J2H       0.708500
     13 C04          2.7430     0.1140     0.0110 ca         1 J2H       0.056600
     14 C05          3.4040    -0.3560     1.1360 ca         1 J2H      -0.110000
     15 C06          4.7530    -0.6610     1.0600 ca         1 J2H      -0.113000
     16 C07          5.4610    -0.4950    -0.1310 cp         1 J2H      -0.025000
     17 C08          6.8990    -0.8230    -0.2090 cp         1 J2H      -0.038000
     18 C09          7.7680    -0.0420    -0.9730 ca         1 J2H      -0.115500
     19 C18         -1.2950     2.7380     0.2410 ca         1 J2H       0.785900
     20 C20         -2.8100     4.1970    -0.5590 ca         1 J2H       0.450200
     21 C21         -2.7480     4.9200     0.6190 ca         1 J2H      -0.366600
     22 C22         -1.8780     4.4470     1.5870 ca         1 J2H       0.450200
     23 C26         -3.3090    -0.0140    -0.7750 c6         1 J2H       0.171300
     24 C29         -5.9710    -1.3020    -0.1950 ca         1 J2H       0.406600
     25 C31         -7.2860    -1.7700    -2.0110 ca         1 J2H       0.395200
     26 C32         -7.2780    -3.1260    -1.7410 ca         1 J2H      -0.240300
     27 C33         -6.5770    -3.5640    -0.6270 ca         1 J2H      -0.101000
     28 C34         -5.9030    -2.6530     0.1760 ca         1 J2H      -0.159600
     29 C35         -5.1530    -3.1040     1.3920 c3         1 J2H      -0.044800
     30 N03          1.3580     0.4030     0.0810 n          1 J2H      -0.438600
     31 N17         -0.5170     1.5770     0.0480 n          1 J2H      -0.485300
     32 N19         -2.0740     3.1090    -0.7560 nb         1 J2H      -0.692500
     33 N23         -1.1530     3.3500     1.4040 nb         1 J2H      -0.692500
     34 N27         -3.8200    -0.3900     0.5290 n3         1 J2H      -0.729600
     35 N30         -6.6480    -0.8810    -1.2580 nb         1 J2H      -0.675000
     36 O38          1.4850     2.7020    -0.1100 o          1 J2H      -0.589500
     37 H101         9.7760     0.2690    -1.6430 ha         1 J2H       0.131000
     38 H111        10.6770    -1.6900    -0.4230 ha         1 J2H       0.131000
     39 H121         9.1510    -3.0930     0.9320 ha         1 J2H       0.131000
     40 H131         6.7620    -2.5550     1.0600 ha         1 J2H       0.133000
     41 H141         5.2950     0.1060    -2.1900 ha         1 J2H       0.137000
     42 H361        -3.5560     0.0330     2.5450 h1         1 J2H       0.041700
     43 H362        -3.2760     1.4170     1.5050 h1         1 J2H       0.041700
     44 H371        -1.1360     0.5090     2.3820 hc         1 J2H       0.071950
     45 H372        -1.5770    -1.1010     1.8280 hc         1 J2H       0.071950
     46 H252        -1.4450    -0.0050    -1.8570 hc         1 J2H       0.071950
     47 H251        -1.7370    -1.4430    -0.8850 hc         1 J2H       0.071950
     48 H151         2.9050     0.6340    -2.0650 ha         1 J2H       0.143500
     49 H051         2.8730    -0.4720     2.0710 ha         1 J2H       0.143500
     50 H061         5.2610    -1.0120     1.9490 ha         1 J2H       0.137000
     51 H091         7.3930     0.8280    -1.4980 ha         1 J2H       0.133000
     52 H201        -3.4600     4.5000    -1.3710 h4         1 J2H       0.032600
     53 H211        -3.3420     5.8080     0.7730 ha         1 J2H       0.159000
     54 H221        -1.7640     4.9560     2.5360 h4         1 J2H       0.032600
     55 H261        -3.4830     1.0510    -0.9880 h1         1 J2H       0.041700
     56 H262        -3.8410    -0.5740    -1.5460 h1         1 J2H       0.041700
     57 H282        -5.6090     0.7410     0.2910 h1         1 J2H       0.048200
     58 H281        -5.5460    -0.3580     1.6670 h1         1 J2H       0.048200
     59 H311        -7.8250    -1.3800    -2.8680 h4         1 J2H       0.018100
     60 H321        -7.8090    -3.8180    -2.3800 ha         1 J2H       0.141000
     61 H331        -6.5570    -4.6180    -0.3770 ha         1 J2H       0.136000
     62 H352        -4.0920    -2.8730     1.3050 hc         1 J2H       0.048700
     63 H353        -5.5120    -2.5980     2.2910 hc         1 J2H       0.048700
     64 H351        -5.2670    -4.1760     1.5460 hc         1 J2H       0.048700
     65 O01          0.5450    -1.7220     0.3380 o          1 J2H      -0.563500
     66 C28         -5.2600    -0.2510     0.6170 c3         1 J2H       0.120500
@<TRIPOS>BOND
     1     1     2 ar  
     2     1    18 ar  
     3     1    37 1   
     4     2     3 ar  
     5     2    38 1   
     6     3     4 ar  
     7     3    39 1   
     8     4    17 ar  
     9     4    40 1   
    10     5    11 ar  
    11     5    16 ar  
    12     5    41 1   
    13     6     7 1   
    14     6    34 1   
    15     6    42 1   
    16     6    43 1   
    17     7     8 1   
    18     7    44 1   
    19     7    45 1   
    20     8     9 1   
    21     8    12 1   
    22     8    31 1   
    23     9    23 1   
    24     9    46 1   
    25     9    47 1   
    26    10    30 1   
    27    10    31 1   
    28    10    36 2   
    29    11    13 ar  
    30    11    48 1   
    31    12    30 1   
    32    12    65 2   
    33    13    14 ar  
    34    13    30 1   
    35    14    15 ar  
    36    14    49 1   
    37    15    16 ar  
    38    15    50 1   
    39    16    17 1   
    40    17    18 ar  
    41    18    51 1   
    42    19    31 1   
    43    19    32 ar  
    44    19    33 ar  
    45    20    21 ar  
    46    20    32 ar  
    47    20    52 1   
    48    21    22 ar  
    49    21    53 1   
    50    22    33 ar  
    51    22    54 1   
    52    23    34 1   
    53    23    55 1   
    54    23    56 1   
    55    24    28 ar  
    56    24    35 ar  
    57    24    66 1   
    58    25    26 ar  
    59    25    35 ar  
    60    25    59 1   
    61    26    27 ar  
    62    26    60 1   
    63    27    28 ar  
    64    27    61 1   
    65    28    29 1   
    66    29    62 1   
    67    29    63 1   
    68    29    64 1   
    69    34    66 1   
    70    57    66 1   
    71    58    66 1   
@<TRIPOS>SUBSTRUCTURE
     1 J2H         1 TEMP              0 ****  ****    0 ROOT
