@<TRIPOS>MOLECULE
J2I
   59    63     1     0     0
SMALL
abcg2


@<TRIPOS>ATOM
      1 C1           6.5480     3.1320     0.7400 cc         1 J2I      -0.246000
      2 C2           6.5990     1.7350     0.6850 cc         1 J2I      -0.199000
      3 C3          -6.7020    -0.1210     1.3740 ca         1 J2I      -0.238000
      4 C4          -6.6190     0.1800    -1.0190 ca         1 J2I      -0.238000
      5 C5           3.6840    -2.9160    -0.0870 cc         1 J2I      -0.227000
      6 C6           5.2710     3.5330     0.3720 cd         1 J2I      -0.173100
      7 C7          -4.5430    -0.1780     0.2310 ca         1 J2I      -0.192300
      8 C8          -7.3560     0.0920     0.1600 ca         1 J2I       0.200100
      9 C9          -5.3310    -0.2440     1.3720 ca         1 J2I       0.250500
     10 C10         -5.2450     0.0470    -0.9390 ca         1 J2I       0.250500
     11 C11          5.3400     1.3120     0.2790 cd         1 J2I      -0.292000
     12 C12          3.9270    -4.3050    -0.1110 cc         1 J2I       0.268300
     13 C13          4.9330    -2.3550     0.0750 cd         1 J2I       0.235000
     14 C14          4.6840     0.0760     0.0290 cd         1 J2I       0.474900
     15 C15          2.7840     1.2170    -0.5120 cc         1 J2I       0.386900
     16 C16         -2.3740     1.0570     0.2130 c          1 J2I       0.611100
     17 C17          0.6460     2.2990    -1.0190 c6         1 J2I       0.194300
     18 C18          0.7530    -0.1020    -0.9370 c6         1 J2I       0.194300
     19 C19         -0.2780     2.3100     0.1930 c6         1 J2I       0.066000
     20 C20         -0.1750    -0.1130     0.2730 c6         1 J2I       0.066000
     21 C22         -9.4060     0.4220    -0.9830 c3         1 J2I       0.146900
     22 C23         -3.0550    -0.3090     0.2520 c3         1 J2I      -0.092100
     23 N24          5.8060    -3.3780     0.1360 na         1 J2I      -0.045200
     24 N25          3.4380     0.0360    -0.3550 nc         1 J2I      -0.310000
     25 N26          3.2640     2.4120    -0.2840 nd         1 J2I      -0.376800
     26 N27          5.2110    -4.5700     0.0250 nd         1 J2I      -0.515800
     27 N28          4.5580     2.4260     0.0970 na         1 J2I       0.320900
     28 N29          1.5080     1.1330    -0.9930 nh         1 J2I      -0.754300
     29 N30         -1.0260     1.0640     0.2590 n          1 J2I      -0.417800
     30 N31          5.3940    -1.0610     0.2020 nu         1 J2I      -0.918900
     31 O32         -3.0370     2.0810     0.1510 o          1 J2I      -0.591100
     32 O33         -8.6900     0.2010     0.2180 os         1 J2I      -0.333100
     33 F34         -4.7170    -0.4410     2.5480 f          1 J2I      -0.173000
     34 F35         -4.5440     0.1440    -2.0770 f          1 J2I      -0.173000
     35 H1           7.3520     3.7950     1.0170 ha         1 J2I       0.208000
     36 H2           7.4470     1.1090     0.9140 ha         1 J2I       0.197000
     37 H3          -7.2610    -0.1860     2.2990 ha         1 J2I       0.145500
     38 H4          -7.0760     0.3530    -1.9830 ha         1 J2I       0.145500
     39 H5           2.7410    -2.4120    -0.1720 ha         1 J2I       0.160000
     40 H6           4.8330     4.5130     0.2870 h4         1 J2I       0.235000
     41 H17          0.0480     2.2640    -1.9340 h1         1 J2I       0.076200
     42 H17A         1.2400     3.2080    -1.0470 h1         1 J2I       0.076200
     43 H18          1.4220    -0.9540    -0.9060 h1         1 J2I       0.076200
     44 H18A         0.1540    -0.1810    -1.8490 h1         1 J2I       0.076200
     45 H19          0.3150     2.4170     1.1070 h1         1 J2I       0.065450
     46 H19A        -0.9660     3.1490     0.1370 h1         1 J2I       0.065450
     47 H20         -0.7640    -1.0270     0.2700 h1         1 J2I       0.065450
     48 H20A         0.4200    -0.1140     1.1930 h1         1 J2I       0.065450
     49 H21          2.3530    -5.2850    -1.1830 hc         1 J2I       0.048033
     50 H21A         3.4010    -6.3690    -0.2680 hc         1 J2I       0.048033
     51 H21B         2.2020    -5.3780     0.5640 hc         1 J2I       0.048033
     52 H22        -10.4570     0.4690    -0.7090 h1         1 J2I       0.046033
     53 H22A        -9.1220     1.3640    -1.4570 h1         1 J2I       0.046033
     54 H22B        -9.2620    -0.3920    -1.6970 h1         1 J2I       0.046033
     55 H23         -2.7330    -0.8540     1.1400 hc         1 J2I       0.072700
     56 H23A        -2.7200    -0.9100    -0.5960 hc         1 J2I       0.072700
     57 HN31         6.3630    -0.9540     0.4630 hn         1 J2I       0.511000
     58 HN24         6.8080    -3.3250     0.2340 hn         1 J2I       0.369000
     59 C21          2.9200    -5.3930    -0.2570 c3         1 J2I      -0.121400
@<TRIPOS>BOND
     1     1     2 1   
     2     1     6 2   
     3     1    35 1   
     4     2    11 2   
     5     2    36 1   
     6     3     8 ar  
     7     3     9 ar  
     8     3    37 1   
     9     4     8 ar  
    10     4    10 ar  
    11     4    38 1   
    12     5    12 1   
    13     5    13 2   
    14     5    39 1   
    15     6    27 1   
    16     6    40 1   
    17     7     9 ar  
    18     7    10 ar  
    19     7    22 1   
    20     8    32 1   
    21     9    33 1   
    22    10    34 1   
    23    11    14 1   
    24    11    27 1   
    25    12    26 2   
    26    12    59 1   
    27    13    23 1   
    28    13    30 1   
    29    14    24 2   
    30    14    30 1   
    31    15    24 1   
    32    15    25 2   
    33    15    28 1   
    34    16    22 1   
    35    16    29 1   
    36    16    31 2   
    37    17    19 1   
    38    17    28 1   
    39    17    41 1   
    40    17    42 1   
    41    18    20 1   
    42    18    28 1   
    43    18    43 1   
    44    18    44 1   
    45    19    29 1   
    46    19    45 1   
    47    19    46 1   
    48    20    29 1   
    49    20    47 1   
    50    20    48 1   
    51    21    32 1   
    52    21    52 1   
    53    21    53 1   
    54    21    54 1   
    55    22    55 1   
    56    22    56 1   
    57    23    26 1   
    58    23    58 1   
    59    25    27 1   
    60    30    57 1   
    61    49    59 1   
    62    50    59 1   
    63    51    59 1   
@<TRIPOS>SUBSTRUCTURE
     1 J2I         1 TEMP              0 ****  ****    0 ROOT
