@<TRIPOS>MOLECULE
J2I
   59    63     1     0     0
SMALL
No Charge or Current Charge


@<TRIPOS>ATOM
      1 C1           6.6770     2.8160     1.3390 cc         1 J2I      -0.246000
      2 C2           6.3160     1.4430     1.4800 cc         1 J2I      -0.199000
      3 C3          -4.9040    -1.4130     0.7410 ca         1 J2I      -0.238000
      4 C4          -6.4870     0.0430    -0.3750 ca         1 J2I      -0.238000
      5 C5           2.8800    -2.7050     0.5980 cc         1 J2I      -0.227000
      6 C6           5.7310     3.4780     0.5750 cd         1 J2I      -0.173100
      7 C7          -4.2100    -0.1760    -1.2520 ca         1 J2I      -0.192300
      8 C8          -6.1860    -0.8600     0.6620 ca         1 J2I       0.200100
      9 C9          -3.9250    -1.0750    -0.2040 ca         1 J2I       0.250500
     10 C10         -5.5060     0.3790    -1.3190 ca         1 J2I       0.250500
     11 C11          5.1390     1.2750     0.7930 cd         1 J2I      -0.292000
     12 C12          2.7590    -4.0710     0.8910 cc         1 J2I       0.268300
     13 C13          4.0610    -2.2980     1.1240 cd         1 J2I       0.235000
     14 C14          4.3130     0.1540     0.5800 cd         1 J2I       0.474900
     15 C15          2.9780     1.5630    -0.6360 cc         1 J2I       0.386900
     16 C16         -2.3420     1.4510    -1.8110 c          1 J2I       0.611100
     17 C17          0.9120     2.8340    -1.3320 c6         1 J2I       0.194300
     18 C18          1.1030     0.4300    -1.9540 c6         1 J2I       0.194300
     19 C19         -0.3980     2.5130    -0.5590 c6         1 J2I       0.066000
     20 C20         -0.2040     0.1250    -1.1700 c6         1 J2I       0.066000
     21 C22         -8.4450    -0.7020     1.6430 c3         1 J2I       0.146900
     22 C23         -3.1320     0.2080    -2.2820 c3         1 J2I      -0.092100
     23 N24          4.6040    -3.4410     1.7190 na         1 J2I      -0.045200
     24 N25          3.2190     0.2850    -0.1420 nc         1 J2I      -0.310000
     25 N26          3.6890     2.6920    -0.4880 nd         1 J2I      -0.376800
     26 N27          3.7790    -4.5630     1.5680 nd         1 J2I      -0.515800
     27 N28          4.8120     2.4860     0.2660 na         1 J2I       0.320900
     28 N29          1.8030     1.6280    -1.3740 nh         1 J2I      -0.754300
     29 N30         -1.1050     1.3210    -1.1210 n          1 J2I      -0.417800
     30 N31          4.6540    -1.0570     1.1180 nu         1 J2I      -0.918900
     31 O32         -2.8370     2.5620    -1.9670 o          1 J2I      -0.591100
     32 O33         -7.1060    -1.2280     1.6220 os         1 J2I      -0.333100
     33 F34         -2.6970    -1.6270    -0.0900 f          1 J2I      -0.173000
     34 F35         -5.8270     1.2510    -2.3020 f          1 J2I      -0.173000
     35 H1           7.5700     3.2640     1.7750 ha         1 J2I       0.208000
     36 H2           6.8850     0.6960     2.0340 ha         1 J2I       0.197000
     37 H3          -4.6630    -2.1090     1.5400 ha         1 J2I       0.145500
     38 H4          -7.4700     0.4930    -0.4670 ha         1 J2I       0.145500
     39 H5           2.1510    -2.1160     0.0570 ha         1 J2I       0.160000
     40 H6           5.6370     4.5070     0.2430 h4         1 J2I       0.235000
     41 H17          0.6550     3.1480    -2.3550 h1         1 J2I       0.076200
     42 H17A         1.4000     3.6940    -0.8500 h1         1 J2I       0.076200
     43 H18          1.7390    -0.4670    -1.9720 h1         1 J2I       0.076200
     44 H18A         0.8370     0.6320    -3.0030 h1         1 J2I       0.076200
     45 H19         -0.1480     2.3100     0.4920 h1         1 J2I       0.065450
     46 H19A        -1.0450     3.4010    -0.5630 h1         1 J2I       0.065450
     47 H20         -0.6790    -0.7540    -1.6130 h1         1 J2I       0.065450
     48 H20A         0.0610    -0.1530    -0.1400 h1         1 J2I       0.065450
     49 H21          1.4340    -4.8310    -0.6220 hc         1 J2I       0.048033
     50 H21A         1.6870    -5.9380     0.7400 hc         1 J2I       0.048033
     51 H21B         0.6560    -4.5090     0.9400 hc         1 J2I       0.048033
     52 H22         -9.0050    -1.1210     2.4890 h1         1 J2I       0.046033
     53 H22A        -8.4340     0.3910     1.7510 h1         1 J2I       0.046033
     54 H22B        -8.9810    -0.9600     0.7200 h1         1 J2I       0.046033
     55 H23         -2.4870    -0.6530    -2.4610 hc         1 J2I       0.072700
     56 H23A        -3.6100     0.4580    -3.2360 hc         1 J2I       0.072700
     57 HN31         5.5380    -1.0030     1.6190 hn         1 J2I       0.511000
     58 HN24         5.4920    -3.4930     2.2110 hn         1 J2I       0.369000
     59 C21          1.5700    -4.8830     0.4650 c3         1 J2I      -0.121400
@<TRIPOS>BOND
     1     1     2 1   
     2     1     6 2   
     3     1    35 1   
     4     2    11 2   
     5     2    36 1   
     6     3     8 ar  
     7     3     9 ar  
     8     3    37 1   
     9     4     8 ar  
    10     4    10 ar  
    11     4    38 1   
    12     5    12 1   
    13     5    13 2   
    14     5    39 1   
    15     6    27 1   
    16     6    40 1   
    17     7     9 ar  
    18     7    10 ar  
    19     7    22 1   
    20     8    32 1   
    21     9    33 1   
    22    10    34 1   
    23    11    14 1   
    24    11    27 1   
    25    12    26 2   
    26    12    59 1   
    27    13    23 1   
    28    13    30 1   
    29    14    24 2   
    30    14    30 1   
    31    15    24 1   
    32    15    25 2   
    33    15    28 1   
    34    16    22 1   
    35    16    29 1   
    36    16    31 2   
    37    17    19 1   
    38    17    28 1   
    39    17    41 1   
    40    17    42 1   
    41    18    20 1   
    42    18    28 1   
    43    18    43 1   
    44    18    44 1   
    45    19    29 1   
    46    19    45 1   
    47    19    46 1   
    48    20    29 1   
    49    20    47 1   
    50    20    48 1   
    51    21    32 1   
    52    21    52 1   
    53    21    53 1   
    54    21    54 1   
    55    22    55 1   
    56    22    56 1   
    57    23    26 1   
    58    23    58 1   
    59    25    27 1   
    60    30    57 1   
    61    49    59 1   
    62    50    59 1   
    63    51    59 1   
@<TRIPOS>SUBSTRUCTURE
     1 J2I         1 TEMP              0 ****  ****    0 ROOT
