@<TRIPOS>MOLECULE
J2L
   53    56     1     0     0
SMALL
No Charge or Current Charge


@<TRIPOS>ATOM
      1 C01         27.4330   -45.6930   -14.5250 cc         1 J2L      -0.177500
      2 C02         27.8570   -46.1690   -13.2960 cd         1 J2L      -0.041000
      3 C06         26.2560   -47.0970   -16.6600 c3         1 J2L      -0.331100
      4 C07         28.3600   -44.8150   -15.1680 cc         1 J2L      -0.081000
      5 C10         29.4460   -43.4790   -16.4720 cd         1 J2L       0.068400
      6 O14         25.1670   -47.0830   -14.2580 o          1 J2L      -0.511500
      7 C17         30.3670   -47.6560   -11.5540 c3         1 J2L      -0.108700
      8 C18         30.8270   -48.2040   -10.2280 cc         1 J2L       0.443800
      9 C21         31.9190   -48.6800    -8.5090 cd         1 J2L       0.806900
     10 C25         34.2760   -48.0230    -7.9150 c5         1 J2L       0.238800
     11 C26         35.1790   -48.6400    -6.8150 c5         1 J2L      -0.097400
     12 C27         34.1860   -48.7530    -5.6280 c5         1 J2L      -0.097400
     13 C28         32.9460   -49.3740    -6.3220 c5         1 J2L       0.238800
     14 C03         29.1480   -45.7780   -12.7680 cd         1 J2L       0.291300
     15 N04         30.0230   -44.9620   -13.3720 nc         1 J2L      -0.426800
     16 S05         25.8190   -46.1590   -15.1960 sy         1 J2L       1.071500
     17 N08         29.5620   -44.5050   -14.5880 na         1 J2L       0.239900
     18 C09         30.2810   -43.6580   -15.3880 cc         1 J2L      -0.119300
     19 N11         28.2650   -44.1950   -16.3300 nd         1 J2L      -0.269600
     20 C12         29.7040   -42.6350   -17.6930 c3         1 J2L      -0.020900
     21 O15         25.1400   -44.9420   -15.6640 o          1 J2L      -0.511500
     22 N19         30.0780   -48.9950    -9.3740 na         1 J2L      -0.060700
     23 N20         30.7880   -49.3060    -8.2570 nc         1 J2L      -0.611800
     24 N22         32.0090   -47.9920    -9.6860 nd         1 J2L      -0.747000
     25 N24         32.9870   -48.6990    -7.6380 nh         1 J2L      -0.792300
     26 H29         27.2330   -46.8400   -12.7160 ha         1 J2L       0.156000
     27 H32         25.3300   -47.4330   -17.1360 h1         1 J2L       0.110033
     28 H31         26.8210   -46.4410   -17.3300 h1         1 J2L       0.110033
     29 H30         26.8660   -47.9500   -16.3480 h1         1 J2L       0.110033
     30 H37         32.3830   -43.9020   -14.9670 hc         1 J2L       0.055033
     31 H36         31.9990   -42.4450   -15.9010 hc         1 J2L       0.055033
     32 H38         31.6360   -42.5050   -14.1680 hc         1 J2L       0.055033
     33 H39         30.2550   -45.5790   -10.9340 hc         1 J2L       0.076200
     34 H40         28.7420   -46.4430   -10.7710 hc         1 J2L       0.076200
     35 H42         29.7290   -48.3940   -12.0550 hc         1 J2L       0.070200
     36 H41         31.2390   -47.5160   -12.2050 hc         1 J2L       0.070200
     37 H43         28.3780   -50.0610    -8.6920 h1         1 J2L       0.055700
     38 H44         28.0230   -48.6260    -9.6960 h1         1 J2L       0.055700
     39 H45         28.6540   -50.1170   -10.4570 h1         1 J2L       0.055700
     40 H46         34.6610   -48.2330    -8.9230 h1         1 J2L       0.049450
     41 H47         34.1820   -46.9340    -7.7970 h1         1 J2L       0.049450
     42 H48         35.5540   -49.6250    -7.1170 hc         1 J2L       0.052200
     43 H49         36.0470   -48.0110    -6.5880 hc         1 J2L       0.052200
     44 H50         34.5650   -49.3790    -4.8120 hc         1 J2L       0.052200
     45 H51         33.9530   -47.7680    -5.2070 hc         1 J2L       0.052200
     46 H53         32.0220   -49.1680    -5.7640 h1         1 J2L       0.049450
     47 H52         33.0490   -50.4630    -6.4350 h1         1 J2L       0.049450
     48 H34         28.8640   -42.6770   -18.3960 hc         1 J2L       0.051700
     49 H33         29.8570   -41.5860   -17.4160 hc         1 J2L       0.051700
     50 H35         30.6000   -42.9790   -18.2220 hc         1 J2L       0.051700
     51 C13         31.6490   -43.0960   -15.0910 c3         1 J2L      -0.016900
     52 C16         29.6070   -46.3120   -11.4330 c3         1 J2L      -0.126700
     53 C23         28.6990   -49.4800    -9.5650 c3         1 J2L       0.076900
@<TRIPOS>BOND
     1     1     2 2   
     2     1     4 1   
     3     1    16 1   
     4     2    14 1   
     5     2    26 1   
     6     3    16 1   
     7     3    27 1   
     8     3    28 1   
     9     3    29 1   
    10     4    17 1   
    11     4    19 2   
    12     5    18 2   
    13     5    19 1   
    14     5    20 1   
    15     6    16 2   
    16     7     8 1   
    17     7    35 1   
    18     7    36 1   
    19     7    52 1   
    20     8    22 1   
    21     8    24 2   
    22     9    23 2   
    23     9    24 1   
    24     9    25 1   
    25    10    11 1   
    26    10    25 1   
    27    10    40 1   
    28    10    41 1   
    29    11    12 1   
    30    11    42 1   
    31    11    43 1   
    32    12    13 1   
    33    12    44 1   
    34    12    45 1   
    35    13    25 1   
    36    13    46 1   
    37    13    47 1   
    38    14    15 2   
    39    14    52 1   
    40    15    17 1   
    41    16    21 2   
    42    17    18 1   
    43    18    51 1   
    44    20    48 1   
    45    20    49 1   
    46    20    50 1   
    47    22    23 1   
    48    22    53 1   
    49    30    51 1   
    50    31    51 1   
    51    32    51 1   
    52    33    52 1   
    53    34    52 1   
    54    37    53 1   
    55    38    53 1   
    56    39    53 1   
@<TRIPOS>SUBSTRUCTURE
     1 J2L         1 TEMP              0 ****  ****    0 ROOT
