@<TRIPOS>MOLECULE
J2L
   53    56     1     0     0
SMALL
bcc


@<TRIPOS>ATOM
      1 C01         27.6480   -45.9090   -14.5510 cc         1 J2L      -0.177500
      2 C02         28.0740   -46.2810   -13.3160 cd         1 J2L      -0.124300
      3 C06         26.8980   -47.5230   -16.6950 c3         1 J2L      -0.220300
      4 C07         28.3480   -44.9010   -15.2360 cc         1 J2L      -0.030300
      5 C10         29.2190   -43.4520   -16.5290 cd         1 J2L       0.068400
      6 O14         25.7270   -47.6690   -14.3310 o          1 J2L      -0.582300
      7 C17         30.3730   -47.4550   -11.4780 c3         1 J2L      -0.108700
      8 C18         30.8010   -47.9490   -10.1410 cc         1 J2L       0.443800
      9 C21         31.9110   -48.4450    -8.4320 cd         1 J2L       0.806900
     10 C25         34.3390   -48.4450    -8.0130 c5         1 J2L       0.238800
     11 C26         35.1060   -49.2950    -7.0030 c5         1 J2L      -0.097400
     12 C27         34.2320   -49.2370    -5.7530 c5         1 J2L      -0.097400
     13 C28         32.8170   -49.2800    -6.3190 c5         1 J2L       0.238800
     14 C03         29.2170   -45.6420   -12.7530 cd         1 J2L       0.356600
     15 N04         29.8810   -44.7110   -13.3720 nc         1 J2L      -0.426800
     16 S05         26.2170   -46.6830   -15.2870 sy         1 J2L       1.102300
     17 N08         29.4440   -44.3710   -14.5770 na         1 J2L       0.189200
     18 C09         30.0080   -43.4400   -15.3960 cc         1 J2L      -0.119300
     19 N11         28.2050   -44.3510   -16.4190 nd         1 J2L      -0.269600
     20 C12         29.4080   -42.6230   -17.7510 c3         1 J2L      -0.020900
     21 O15         25.3100   -45.6400   -15.7460 o          1 J2L      -0.582300
     22 N19         29.9850   -48.4750    -9.2280 na         1 J2L      -0.031400
     23 N20         30.6800   -48.8040    -8.1160 nc         1 J2L      -0.611800
     24 N22         32.0350   -47.9090    -9.6710 nd         1 J2L      -0.747000
     25 N24         32.9570   -48.5950    -7.5900 nh         1 J2L      -0.792300
     26 H29         27.5700   -47.0530   -12.7500 ha         1 J2L       0.174000
     27 H32         26.0700   -48.0200   -17.1990 h1         1 J2L       0.110033
     28 H31         27.3590   -46.7960   -17.3600 h1         1 J2L       0.110033
     29 H30         27.6280   -48.2560   -16.3590 h1         1 J2L       0.110033
     30 H37         32.0680   -43.3190   -14.8300 hc         1 J2L       0.055033
     31 H36         31.4910   -42.0050   -15.8520 hc         1 J2L       0.055033
     32 H38         31.0550   -42.0520   -14.1450 hc         1 J2L       0.055033
     33 H39         30.4320   -45.3380   -11.0330 hc         1 J2L       0.076200
     34 H40         28.8720   -46.0870   -10.7090 hc         1 J2L       0.076200
     35 H42         29.6950   -48.1730   -11.9430 hc         1 J2L       0.070200
     36 H41         31.2570   -47.4030   -12.1140 hc         1 J2L       0.070200
     37 H43         28.3550   -49.7480    -9.0300 h1         1 J2L       0.055700
     38 H44         28.0430   -48.0610    -8.5800 h1         1 J2L       0.055700
     39 H45         28.1960   -48.5140   -10.2830 h1         1 J2L       0.055700
     40 H46         34.4860   -48.7880    -9.0390 h1         1 J2L       0.049450
     41 H47         34.6550   -47.3980    -7.9710 h1         1 J2L       0.049450
     42 H48         35.1790   -50.3250    -7.3610 hc         1 J2L       0.052200
     43 H49         36.1190   -48.9300    -6.8380 hc         1 J2L       0.052200
     44 H50         34.4220   -50.0530    -5.0560 hc         1 J2L       0.052200
     45 H51         34.3950   -48.2980    -5.2190 hc         1 J2L       0.052200
     46 H53         32.0910   -48.7800    -5.6740 h1         1 J2L       0.049450
     47 H52         32.4740   -50.3130    -6.4550 h1         1 J2L       0.049450
     48 H34         28.6000   -42.7990   -18.4580 hc         1 J2L       0.051700
     49 H33         29.4260   -41.5580   -17.5160 hc         1 J2L       0.051700
     50 H35         30.3500   -42.8580   -18.2500 hc         1 J2L       0.051700
     51 C13         31.2160   -42.6660   -15.0330 c3         1 J2L      -0.016900
     52 C16         29.7140   -46.0690   -11.4060 c3         1 J2L      -0.126700
     53 C23         28.5660   -48.7110    -9.2800 c3         1 J2L       0.047600
@<TRIPOS>BOND
     1     1     2 2   
     2     1     4 1   
     3     1    16 1   
     4     2    14 1   
     5     2    26 1   
     6     3    16 1   
     7     3    27 1   
     8     3    28 1   
     9     3    29 1   
    10     4    17 1   
    11     4    19 2   
    12     5    18 2   
    13     5    19 1   
    14     5    20 1   
    15     6    16 2   
    16     7     8 1   
    17     7    35 1   
    18     7    36 1   
    19     7    52 1   
    20     8    22 1   
    21     8    24 2   
    22     9    23 2   
    23     9    24 1   
    24     9    25 1   
    25    10    11 1   
    26    10    25 1   
    27    10    40 1   
    28    10    41 1   
    29    11    12 1   
    30    11    42 1   
    31    11    43 1   
    32    12    13 1   
    33    12    44 1   
    34    12    45 1   
    35    13    25 1   
    36    13    46 1   
    37    13    47 1   
    38    14    15 2   
    39    14    52 1   
    40    15    17 1   
    41    16    21 2   
    42    17    18 1   
    43    18    51 1   
    44    20    48 1   
    45    20    49 1   
    46    20    50 1   
    47    22    23 1   
    48    22    53 1   
    49    30    51 1   
    50    31    51 1   
    51    32    51 1   
    52    33    52 1   
    53    34    52 1   
    54    37    53 1   
    55    38    53 1   
    56    39    53 1   
@<TRIPOS>SUBSTRUCTURE
     1 J2L         1 TEMP              0 ****  ****    0 ROOT
