@<TRIPOS>MOLECULE
J2M
   43    46     1     0     0
SMALL
abcg2


@<TRIPOS>ATOM
      1 N14          4.4160    -2.4550    -0.3550 ns         1 J2M      -0.511900
      2 C13          3.6660    -3.6420    -0.7330 c6         1 J2M       0.116000
      3 C16          1.6570     1.2080     0.0060 ca         1 J2M      -0.088000
      4 C15          3.8570    -1.2370    -0.1520 c          1 J2M       0.602600
      5 C19          2.5200     1.9010     0.8470 ca         1 J2M       0.410900
      6 C21          2.1010     3.8610    -0.1770 ca         1 J2M       0.572200
      7 C22          1.2130     3.3080    -1.0820 ca         1 J2M      -0.204000
      8 C23          0.9980     1.9470    -0.9770 ca         1 J2M      -0.039000
      9 C24         -5.8890    -0.7800    -0.5040 c          1 J2M       0.609100
     10 C12          2.4120    -3.8000     0.1190 c6         1 J2M      -0.027100
     11 N1          -3.7110     0.7140     0.7710 nb         1 J2M      -0.672000
     12 C2          -3.4990    -0.4260     0.1380 ca         1 J2M       0.494900
     13 C3          -2.2240    -0.9760    -0.0370 ca         1 J2M      -0.234000
     14 C4          -1.1210    -0.3080     0.4740 ca         1 J2M       0.055000
     15 C5          -1.3490     0.8980     1.1470 ca         1 J2M      -0.181000
     16 C6          -2.6470     1.3500     1.2560 ca         1 J2M       0.376900
     17 C7           0.2180    -0.8570     0.3210 cc         1 J2M      -0.135000
     18 C8           1.4400    -0.2370     0.1480 cd         1 J2M      -0.005000
     19 C9           2.4050    -1.2770     0.0330 cd         1 J2M      -0.215600
     20 C10          1.7390    -2.4780     0.1440 cc         1 J2M      -0.123300
     21 N11          0.4340    -2.2150     0.3100 na         1 J2M      -0.080000
     22 O18          4.5250    -0.2110    -0.0910 o          1 J2M      -0.553000
     23 N20          2.7370     3.2090     0.7540 nb         1 J2M      -0.703000
     24 C25         -6.7230    -1.8540    -1.1600 c3         1 J2M      -0.187100
     25 O26         -6.3510     0.2710    -0.1170 o          1 J2M      -0.521100
     26 F27          2.3480     5.1740    -0.2380 f          1 J2M      -0.229200
     27 H36          5.4060    -2.4600    -0.5490 hn         1 J2M       0.317500
     28 H35          3.3790    -3.5960    -1.7890 h1         1 J2M       0.045200
     29 H34          4.3180    -4.5040    -0.6090 h1         1 J2M       0.045200
     30 H38          3.0490     1.3810     1.6350 h4         1 J2M       0.039100
     31 H39          0.7190     3.9090    -1.8320 ha         1 J2M       0.141000
     32 H40          0.3210     1.4550    -1.6640 ha         1 J2M       0.124000
     33 H33          1.7760    -4.5760    -0.3070 hc         1 J2M       0.064200
     34 H32          2.6730    -4.1110     1.1350 hc         1 J2M       0.064200
     35 H28         -2.1080    -1.8980    -0.5940 ha         1 J2M       0.111000
     36 H29         -0.5420     1.4580     1.5960 ha         1 J2M       0.139000
     37 H30         -2.8490     2.2790     1.7770 h4         1 J2M       0.029100
     38 H31         -0.2770    -2.9120     0.4700 hn         1 J2M       0.352000
     39 H37         -4.3240    -2.0260    -0.7960 hn         1 J2M       0.147000
     40 H41         -7.7250    -1.4830    -1.3540 hc         1 J2M       0.063367
     41 H42         -6.2790    -2.1840    -2.0990 hc         1 J2M       0.063367
     42 H43         -6.7940    -2.7260    -0.5080 hc         1 J2M       0.063367
     43 N17         -4.5700    -1.1340    -0.3930 ns         1 J2M      -0.337900
@<TRIPOS>BOND
     1     1     2 1   
     2     1     4 1   
     3     1    27 1   
     4     2    10 1   
     5     2    28 1   
     6     2    29 1   
     7     3     5 ar  
     8     3     8 ar  
     9     3    18 1   
    10     4    19 1   
    11     4    22 2   
    12     5    23 ar  
    13     5    30 1   
    14     6     7 ar  
    15     6    23 ar  
    16     6    26 1   
    17     7     8 ar  
    18     7    31 1   
    19     8    32 1   
    20     9    24 1   
    21     9    25 2   
    22     9    43 1   
    23    10    20 1   
    24    10    33 1   
    25    10    34 1   
    26    11    12 ar  
    27    11    16 ar  
    28    12    13 ar  
    29    12    43 1   
    30    13    14 ar  
    31    13    35 1   
    32    14    15 ar  
    33    14    17 1   
    34    15    16 ar  
    35    15    36 1   
    36    16    37 1   
    37    17    18 2   
    38    17    21 1   
    39    18    19 1   
    40    19    20 2   
    41    20    21 1   
    42    21    38 1   
    43    24    40 1   
    44    24    41 1   
    45    24    42 1   
    46    39    43 1   
@<TRIPOS>SUBSTRUCTURE
     1 J2M         1 TEMP              0 ****  ****    0 ROOT
