@<TRIPOS>MOLECULE
J2M
   43    46     1     0     0
SMALL
No Charge or Current Charge


@<TRIPOS>ATOM
      1 N14          4.5710    -2.3540    -0.4880 ns         1 J2M      -0.511900
      2 C13          3.9620    -3.6930    -0.5960 c6         1 J2M       0.116000
      3 C16          1.5360     1.1200    -0.0250 ca         1 J2M      -0.088000
      4 C15          3.8990    -1.1700    -0.2720 c          1 J2M       0.602600
      5 C19          2.5890     1.8650     0.5550 ca         1 J2M       0.410900
      6 C21          1.8240     3.8410    -0.3470 ca         1 J2M       0.572200
      7 C22          0.7420     3.2040    -0.9650 ca         1 J2M      -0.204000
      8 C23          0.5880     1.8180    -0.8020 ca         1 J2M      -0.039000
      9 C24         -5.8130    -0.4250    -0.8250 c          1 J2M       0.609100
     10 C12          2.6770    -3.8500     0.2450 c6         1 J2M      -0.027100
     11 N1          -3.6790     0.6280     0.9420 nb         1 J2M      -0.672000
     12 C2          -3.4750    -0.4270     0.1310 ca         1 J2M       0.494900
     13 C3          -2.2180    -1.0120    -0.0700 ca         1 J2M      -0.234000
     14 C4          -1.0910    -0.4480     0.5470 ca         1 J2M       0.055000
     15 C5          -1.3000     0.6610     1.3850 ca         1 J2M      -0.181000
     16 C6          -2.5990     1.1640     1.5520 ca         1 J2M       0.376900
     17 C7           0.2340    -1.0390     0.3600 cc         1 J2M      -0.135000
     18 C8           1.4140    -0.3370     0.2020 cd         1 J2M      -0.005000
     19 C9           2.4470    -1.3200     0.0560 cd         1 J2M      -0.215600
     20 C10          1.8990    -2.5650     0.2300 cc         1 J2M      -0.123300
     21 N11          0.5330    -2.3950     0.3970 na         1 J2M      -0.080000
     22 O18          4.4880    -0.1090    -0.3900 o          1 J2M      -0.553000
     23 N20          2.7370     3.2040     0.4090 nb         1 J2M      -0.703000
     24 C25         -6.8380    -1.4240    -1.3530 c3         1 J2M      -0.187100
     25 O26         -6.0490     0.7750    -0.7860 o          1 J2M      -0.521100
     26 F27          2.0050     5.1720    -0.4770 f          1 J2M      -0.229200
     27 H36          5.5560    -2.2610    -0.7030 hn         1 J2M       0.317500
     28 H35          3.7170    -3.8580    -1.6550 h1         1 J2M       0.045200
     29 H34          4.7000    -4.4540    -0.3030 h1         1 J2M       0.045200
     30 H38          3.3120     1.3810     1.2100 h4         1 J2M       0.039100
     31 H39          0.0410     3.7790    -1.5620 ha         1 J2M       0.141000
     32 H40         -0.2350     1.2990    -1.2870 ha         1 J2M       0.124000
     33 H33          2.0830    -4.6930    -0.1340 hc         1 J2M       0.064200
     34 H32          2.9530    -4.1020     1.2770 hc         1 J2M       0.064200
     35 H28         -2.1210    -1.8810    -0.7130 ha         1 J2M       0.111000
     36 H29         -0.4750     1.1240     1.9170 ha         1 J2M       0.139000
     37 H30         -2.7830     2.0180     2.2030 h4         1 J2M       0.029100
     38 H31         -0.1400    -3.1410     0.5430 hn         1 J2M       0.352000
     39 H37         -4.5550    -1.9970    -0.5860 hn         1 J2M       0.147000
     40 H41         -7.7710    -0.9450    -1.6700 hc         1 J2M       0.063367
     41 H42         -6.3850    -2.0050    -2.1640 hc         1 J2M       0.063367
     42 H43         -7.0140    -2.1900    -0.5890 hc         1 J2M       0.063367
     43 N17         -4.6230    -1.0000    -0.4340 ns         1 J2M      -0.337900
@<TRIPOS>BOND
     1     1     2 1   
     2     1     4 1   
     3     1    27 1   
     4     2    10 1   
     5     2    28 1   
     6     2    29 1   
     7     3     5 ar  
     8     3     8 ar  
     9     3    18 1   
    10     4    19 1   
    11     4    22 2   
    12     5    23 ar  
    13     5    30 1   
    14     6     7 ar  
    15     6    23 ar  
    16     6    26 1   
    17     7     8 ar  
    18     7    31 1   
    19     8    32 1   
    20     9    24 1   
    21     9    25 2   
    22     9    43 1   
    23    10    20 1   
    24    10    33 1   
    25    10    34 1   
    26    11    12 ar  
    27    11    16 ar  
    28    12    13 ar  
    29    12    43 1   
    30    13    14 ar  
    31    13    35 1   
    32    14    15 ar  
    33    14    17 1   
    34    15    16 ar  
    35    15    36 1   
    36    16    37 1   
    37    17    18 2   
    38    17    21 1   
    39    18    19 1   
    40    19    20 2   
    41    20    21 1   
    42    21    38 1   
    43    24    40 1   
    44    24    41 1   
    45    24    42 1   
    46    39    43 1   
@<TRIPOS>SUBSTRUCTURE
     1 J2M         1 TEMP              0 ****  ****    0 ROOT
