@<TRIPOS>MOLECULE
J2P
   34    35     1     0     0
SMALL
No Charge or Current Charge


@<TRIPOS>ATOM
      1 C1           5.6440    -0.1610     0.1880 c3         1 J2P       0.097600
      2 C2           3.3870    -0.3920    -1.0530 c3         1 J2P       0.162900
      3 C3           1.9050    -0.3890    -0.7510 ca         1 J2P      -0.191300
      4 C4           1.2450    -1.5880    -0.4330 ca         1 J2P      -0.081000
      5 C5          -0.1310    -1.5810    -0.1480 ca         1 J2P      -0.092000
      6 C6          -0.8800    -0.3790    -0.1680 cp         1 J2P       0.048000
      7 C7          -0.2010     0.8250    -0.5020 ca         1 J2P       0.121000
      8 C8           1.1760     0.8140    -0.7870 ca         1 J2P      -0.079000
      9 C9          -2.3410    -0.4200     0.1470 cp         1 J2P      -0.086000
     10 C10         -2.9030     0.4050     1.1530 ca         1 J2P      -0.081000
     11 C11         -4.2760     0.3480     1.4520 ca         1 J2P      -0.105000
     12 C12         -5.1110    -0.5410     0.7550 ca         1 J2P      -0.079000
     13 C13         -4.5710    -1.3750    -0.2370 ca         1 J2P      -0.105000
     14 C14         -3.1980    -1.3180    -0.5350 ca         1 J2P      -0.081000
     15 Cl          -1.0470     2.3700    -0.6210 cl         1 J2P      -0.146000
     16 N            4.1240    -0.1870     0.2530 ny         1 J2P      -0.827000
     17 C            6.2420     0.0520     1.5840 c3         1 J2P      -0.133100
     18 H1           6.0030    -1.1090    -0.2260 hx         1 J2P       0.100200
     19 H2           5.9620     0.6480    -0.4770 hx         1 J2P       0.100200
     20 H3           3.6940    -1.3430    -1.4980 hx         1 J2P       0.102200
     21 H4           3.6480     0.4130    -1.7470 hx         1 J2P       0.102200
     22 H5           1.7950    -2.5270    -0.4040 ha         1 J2P       0.122000
     23 H6          -0.6260    -2.5160     0.1030 ha         1 J2P       0.146000
     24 H7           1.6750     1.7460    -1.0440 ha         1 J2P       0.131000
     25 H8          -2.2670     1.0880     1.7110 ha         1 J2P       0.116000
     26 H9          -4.6900     0.9900     2.2260 ha         1 J2P       0.127000
     27 H10         -6.1730    -0.5850     0.9870 ha         1 J2P       0.128000
     28 H11         -5.2160    -2.0670    -0.7750 ha         1 J2P       0.127000
     29 H12         -2.7940    -1.9680    -1.3080 ha         1 J2P       0.116000
     30 H13          3.8120    -0.9190     0.9260 hn         1 J2P       0.501500
     31 H14          3.7750     0.6880     0.6970 hn         1 J2P       0.501500
     32 H15          5.9080     1.0050     2.0100 hc         1 J2P       0.079033
     33 H16          5.9490    -0.7580     2.2630 hc         1 J2P       0.079033
     34 H17          7.3370     0.0690     1.5270 hc         1 J2P       0.079033
@<TRIPOS>BOND
     1     1    16 1   
     2     1    17 1   
     3     1    18 1   
     4     1    19 1   
     5     2     3 1   
     6     2    16 1   
     7     2    20 1   
     8     2    21 1   
     9     3     4 ar  
    10     3     8 ar  
    11     4     5 ar  
    12     4    22 1   
    13     5     6 ar  
    14     5    23 1   
    15     6     7 ar  
    16     6     9 1   
    17     7     8 ar  
    18     7    15 1   
    19     8    24 1   
    20     9    10 ar  
    21     9    14 ar  
    22    10    11 ar  
    23    10    25 1   
    24    11    12 ar  
    25    11    26 1   
    26    12    13 ar  
    27    12    27 1   
    28    13    14 ar  
    29    13    28 1   
    30    14    29 1   
    31    16    30 1   
    32    16    31 1   
    33    17    32 1   
    34    17    33 1   
    35    17    34 1   
@<TRIPOS>SUBSTRUCTURE
     1 J2P         1 TEMP              0 ****  ****    0 ROOT
