@<TRIPOS>MOLECULE
J2P
   34    35     1     0     0
SMALL
abcg2


@<TRIPOS>ATOM
      1 C1           5.5840    -0.1950     0.1640 c3         1 J2P       0.097600
      2 C2           3.3470    -0.3990    -0.9370 c3         1 J2P       0.162900
      3 C3           1.8720    -0.3890    -0.6800 ca         1 J2P      -0.191300
      4 C4           1.2070    -1.5650    -0.3540 ca         1 J2P      -0.081000
      5 C5          -0.1510    -1.5430    -0.0900 ca         1 J2P      -0.092000
      6 C6          -0.8890    -0.3600    -0.1400 cp         1 J2P       0.048000
      7 C7          -0.2030     0.8060    -0.4790 ca         1 J2P       0.121000
      8 C8           1.1570     0.8000    -0.7470 ca         1 J2P      -0.079000
      9 C9          -2.3400    -0.3990     0.1410 cp         1 J2P      -0.086000
     10 C10         -2.9010     0.3630     1.1650 ca         1 J2P      -0.081000
     11 C11         -4.2570     0.2760     1.4420 ca         1 J2P      -0.105000
     12 C12         -5.0710    -0.5680     0.6950 ca         1 J2P      -0.079000
     13 C13         -4.5200    -1.3300    -0.3250 ca         1 J2P      -0.105000
     14 C14         -3.1610    -1.2490    -0.5980 ca         1 J2P      -0.081000
     15 CL          -1.0470     2.3110    -0.6330 cl         1 J2P      -0.146000
     16 N            4.1020    -0.1500     0.3270 ny         1 J2P      -0.827000
     17 C            6.2810     0.0630     1.4790 c3         1 J2P      -0.133100
     18 H1           5.8230    -1.1790    -0.2350 hx         1 J2P       0.100200
     19 H2           5.8380     0.5550    -0.5830 hx         1 J2P       0.100200
     20 H3           3.6800    -1.3620    -1.3190 hx         1 J2P       0.102200
     21 H4           3.6470     0.3780    -1.6380 hx         1 J2P       0.102200
     22 H5           1.7480    -2.5020    -0.3080 ha         1 J2P       0.122000
     23 H6          -0.6580    -2.4630     0.1730 ha         1 J2P       0.146000
     24 H7           1.6550     1.7210    -1.0220 ha         1 J2P       0.131000
     25 H8          -2.2730     1.0120     1.7610 ha         1 J2P       0.116000
     26 H9          -4.6790     0.8650     2.2460 ha         1 J2P       0.127000
     27 H10         -6.1290    -0.6320     0.9120 ha         1 J2P       0.128000
     28 H11         -5.1460    -1.9910    -0.9100 ha         1 J2P       0.127000
     29 H12         -2.7360    -1.8430    -1.3980 ha         1 J2P       0.116000
     30 H13          3.8190    -0.8320     1.0330 hn         1 J2P       0.501500
     31 H14          3.8340     0.7600     0.7050 hn         1 J2P       0.501500
     32 H15          6.0450     1.0510     1.8740 hc         1 J2P       0.079033
     33 H16          6.0200    -0.6850     2.2270 hc         1 J2P       0.079033
     34 H17          7.3570     0.0150     1.3210 hc         1 J2P       0.079033
@<TRIPOS>BOND
     1     1    16 1   
     2     1    17 1   
     3     1    18 1   
     4     1    19 1   
     5     2     3 1   
     6     2    16 1   
     7     2    20 1   
     8     2    21 1   
     9     3     4 ar  
    10     3     8 ar  
    11     4     5 ar  
    12     4    22 1   
    13     5     6 ar  
    14     5    23 1   
    15     6     7 ar  
    16     6     9 1   
    17     7     8 ar  
    18     7    15 1   
    19     8    24 1   
    20     9    10 ar  
    21     9    14 ar  
    22    10    11 ar  
    23    10    25 1   
    24    11    12 ar  
    25    11    26 1   
    26    12    13 ar  
    27    12    27 1   
    28    13    14 ar  
    29    13    28 1   
    30    14    29 1   
    31    16    30 1   
    32    16    31 1   
    33    17    32 1   
    34    17    33 1   
    35    17    34 1   
@<TRIPOS>SUBSTRUCTURE
     1 J2P         1 TEMP              0 ****  ****    0 ROOT
