@<TRIPOS>MOLECULE
J2Q
   39    40     1     0     0
SMALL
abcg2


@<TRIPOS>ATOM
      1 C10          4.3280     1.4920    -0.3340 ca         1 J2Q      -0.145000
      2 C17          0.3890    -0.1580    -0.2140 c          1 J2Q       0.637700
      3 C21         -2.0260     0.3610    -0.1680 ca         1 J2Q      -0.013000
      4 C22         -2.5610    -0.8410    -0.6320 ca         1 J2Q      -0.143000
      5 C24         -3.9290    -1.0490    -0.5740 ca         1 J2Q      -0.064000
      6 C26         -4.7950    -0.0900    -0.0570 ca         1 J2Q      -0.217900
      7 C01          7.3690    -1.4640     0.4330 c3         1 J2Q      -0.093100
      8 C05          6.4710    -0.2820     0.1610 c3         1 J2Q       0.162600
      9 O08          5.1250    -0.7380     0.1720 os         1 J2Q      -0.323100
     10 C09          4.1460     0.1490    -0.0710 ca         1 J2Q       0.096100
     11 C12          3.2290     2.3190    -0.5840 ca         1 J2Q      -0.126000
     12 C14          1.9550     1.8080    -0.5550 ca         1 J2Q      -0.081000
     13 C16          1.7380     0.4480    -0.2740 ca         1 J2Q      -0.257600
     14 O18          0.2440    -1.3820    -0.1490 o          1 J2Q      -0.627100
     15 N19         -0.6660     0.6860    -0.2160 ns         1 J2Q      -0.128000
     16 C27         -4.2510     1.1090     0.4000 ca         1 J2Q      -0.064000
     17 C29         -2.8880     1.3330     0.3420 ca         1 J2Q      -0.143000
     18 C31         -6.2610    -0.3440    -0.0220 ce         1 J2Q       0.664800
     19 N32         -6.9200     0.2430     1.0180 nv         1 J2Q      -1.032200
     20 N35         -6.9040    -1.0180    -0.8980 n2         1 J2Q      -0.844100
     21 C37          2.8400    -0.3910    -0.0520 ca         1 J2Q       0.202100
     22 O38          2.7370    -1.6960     0.1870 oh         1 J2Q      -0.525100
     23 H1           5.3210     1.9200    -0.3610 ha         1 J2Q       0.122000
     24 H2          -1.9330    -1.6130    -1.0460 ha         1 J2Q       0.130500
     25 H3          -4.3180    -1.9940    -0.9320 ha         1 J2Q       0.124000
     26 H4           8.4080    -1.1330     0.4320 hc         1 J2Q       0.049367
     27 H5           7.1600    -1.9100     1.4050 hc         1 J2Q       0.049367
     28 H6           7.2610    -2.2310    -0.3340 hc         1 J2Q       0.049367
     29 H7           6.6130     0.4920     0.9230 h1         1 J2Q       0.030700
     30 H8           6.7110     0.1640    -0.8110 h1         1 J2Q       0.030700
     31 H9           3.3920     3.3650    -0.8050 ha         1 J2Q       0.118000
     32 H10          1.1310     2.4730    -0.7750 ha         1 J2Q       0.107000
     33 H11         -0.4690     1.6680    -0.1070 hn         1 J2Q       0.160000
     34 H12         -4.8900     1.8880     0.7960 ha         1 J2Q       0.124000
     35 H13         -2.4890     2.2750     0.6980 ha         1 J2Q       0.130500
     36 H14         -6.4230     0.3760     1.8820 hn         1 J2Q       0.468000
     37 H15         -7.8860    -0.0190     1.1340 hn         1 J2Q       0.468000
     38 H16         -6.2950    -1.2950    -1.6590 hn         1 J2Q       0.388400
     39 H17          1.7790    -1.9210     0.1100 ho         1 J2Q       0.516000
@<TRIPOS>BOND
     1     1    10 ar  
     2     1    11 ar  
     3     1    23 1   
     4     2    13 1   
     5     2    14 2   
     6     2    15 1   
     7     3     4 ar  
     8     3    15 1   
     9     3    17 ar  
    10     4     5 ar  
    11     4    24 1   
    12     5     6 ar  
    13     5    25 1   
    14     6    16 ar  
    15     6    18 1   
    16     7     8 1   
    17     7    26 1   
    18     7    27 1   
    19     7    28 1   
    20     8     9 1   
    21     8    29 1   
    22     8    30 1   
    23     9    10 1   
    24    10    21 ar  
    25    11    12 ar  
    26    11    31 1   
    27    12    13 ar  
    28    12    32 1   
    29    13    21 ar  
    30    15    33 1   
    31    16    17 ar  
    32    16    34 1   
    33    17    35 1   
    34    18    19 1   
    35    18    20 2   
    36    19    36 1   
    37    19    37 1   
    38    20    38 1   
    39    21    22 1   
    40    22    39 1   
@<TRIPOS>SUBSTRUCTURE
     1 J2Q         1 TEMP              0 ****  ****    0 ROOT
