@<TRIPOS>MOLECULE
J2Q
   39    40     1     0     0
SMALL
No Charge or Current Charge


@<TRIPOS>ATOM
      1 C10          4.3270     1.5120    -0.0140 ca         1 J2Q      -0.145000
      2 C17          0.3910    -0.3750    -0.0660 c          1 J2Q       0.637700
      3 C21         -2.1050     0.2570    -0.0880 ca         1 J2Q      -0.013000
      4 C22         -2.6920    -1.0180    -0.2360 ca         1 J2Q      -0.143000
      5 C24         -4.0910    -1.1630    -0.2580 ca         1 J2Q      -0.064000
      6 C26         -4.9390    -0.0410    -0.1200 ca         1 J2Q      -0.217900
      7 C01          7.6640    -1.3580    -0.0120 c3         1 J2Q      -0.093100
      8 C05          6.6890    -0.1700    -0.0100 c3         1 J2Q       0.162600
      9 O08          5.3550    -0.7040    -0.0260 os         1 J2Q      -0.323100
     10 C09          4.2270     0.1040    -0.0280 ca         1 J2Q       0.096100
     11 C12          3.1650     2.2950    -0.0170 ca         1 J2Q      -0.126000
     12 C14          1.8990     1.6930    -0.0340 ca         1 J2Q      -0.081000
     13 C16          1.7640     0.2810    -0.0480 ca         1 J2Q      -0.257600
     14 O18          0.2870    -1.5990    -0.0780 o          1 J2Q      -0.627100
     15 N19         -0.7000     0.4840    -0.0610 ns         1 J2Q      -0.128000
     16 C27         -4.3460     1.2350     0.0030 ca         1 J2Q      -0.064000
     17 C29         -2.9480     1.3770     0.0230 ca         1 J2Q      -0.143000
     18 C31         -6.4240    -0.1900    -0.1850 ce         1 J2Q       0.664800
     19 N32         -7.1710     0.6720     0.5250 nv         1 J2Q      -1.032200
     20 N35         -7.0040    -1.1700    -0.7420 n2         1 J2Q      -0.844100
     21 C37          2.9460    -0.5060    -0.0450 ca         1 J2Q       0.202100
     22 O38          2.8560    -1.8720    -0.0580 oh         1 J2Q      -0.525100
     23 H1           5.2910     2.0130    -0.0010 ha         1 J2Q       0.122000
     24 H2          -2.0860    -1.9110    -0.3400 ha         1 J2Q       0.130500
     25 H3          -4.5080    -2.1620    -0.3680 ha         1 J2Q       0.124000
     26 H4           8.7000    -0.9980    -0.0000 hc         1 J2Q       0.049367
     27 H5           7.5090    -1.9880     0.8720 hc         1 J2Q       0.049367
     28 H6           7.5240    -1.9720    -0.9100 hc         1 J2Q       0.049367
     29 H7           6.8550     0.4360     0.8900 h1         1 J2Q       0.030700
     30 H8           6.8700     0.4520    -0.8950 h1         1 J2Q       0.030700
     31 H9           3.2460     3.3800    -0.0070 ha         1 J2Q       0.118000
     32 H10          1.0310     2.3490    -0.0360 ha         1 J2Q       0.107000
     33 H11         -0.4510     1.4630    -0.0340 hn         1 J2Q       0.160000
     34 H12         -4.9640     2.1280     0.0720 ha         1 J2Q       0.124000
     35 H13         -2.5180     2.3720     0.1240 ha         1 J2Q       0.130500
     36 H14         -6.6900     1.1220     1.2930 hn         1 J2Q       0.468000
     37 H15         -8.1070     0.3410     0.7210 hn         1 J2Q       0.468000
     38 H16         -6.2940    -1.6910    -1.2730 hn         1 J2Q       0.388400
     39 H17          1.8840    -2.0780    -0.0690 ho         1 J2Q       0.516000
@<TRIPOS>BOND
     1     1    10 ar  
     2     1    11 ar  
     3     1    23 1   
     4     2    13 1   
     5     2    14 2   
     6     2    15 1   
     7     3     4 ar  
     8     3    15 1   
     9     3    17 ar  
    10     4     5 ar  
    11     4    24 1   
    12     5     6 ar  
    13     5    25 1   
    14     6    16 ar  
    15     6    18 1   
    16     7     8 1   
    17     7    26 1   
    18     7    27 1   
    19     7    28 1   
    20     8     9 1   
    21     8    29 1   
    22     8    30 1   
    23     9    10 1   
    24    10    21 ar  
    25    11    12 ar  
    26    11    31 1   
    27    12    13 ar  
    28    12    32 1   
    29    13    21 ar  
    30    15    33 1   
    31    16    17 ar  
    32    16    34 1   
    33    17    35 1   
    34    18    19 1   
    35    18    20 2   
    36    19    36 1   
    37    19    37 1   
    38    20    38 1   
    39    21    22 1   
    40    22    39 1   
@<TRIPOS>SUBSTRUCTURE
     1 J2Q         1 TEMP              0 ****  ****    0 ROOT
