@<TRIPOS>MOLECULE
J2T
   31    34     1     0     0
SMALL
No Charge or Current Charge


@<TRIPOS>ATOM
      1 NAA         -5.1710    -0.2120     0.2930 nc         1 J2T      -0.091000
      2 CAB         -4.0040     0.3670     0.1340 cd         1 J2T      -0.180000
      3 CAC         -3.7140     1.7510    -0.0250 cd         1 J2T       0.004000
      4 CAD         -2.3740     2.0140    -0.1670 cc         1 J2T      -0.180000
      5 CAE          1.1840    -0.6250    -1.0780 ca         1 J2T      -0.125000
      6 CAF          2.4090    -1.3200    -1.1360 ca         1 J2T      -0.069000
      7 CAG          3.5140    -0.7980    -0.4480 ca         1 J2T      -0.105300
      8 CAH          4.9020    -1.3790    -0.3950 c5         1 J2T      -0.029100
      9 CAI          5.4910    -0.6070     0.8470 c5         1 J2T      -0.078400
     10 NAJ         -4.8710    -1.5670     0.3990 nc         1 J2T      -0.040000
     11 NAK         -3.5810    -1.8170     0.3120 nd         1 J2T      -0.190400
     12 NAL         -3.0410    -0.5970     0.1450 na         1 J2T       0.411200
     13 NAM         -1.6870    -0.3730     0.0070 nd         1 J2T      -0.527800
     14 CAN         -1.4360     0.9210    -0.1460 cc         1 J2T       0.589900
     15 NAO         -0.1250     1.2920    -0.2820 nu         1 J2T      -0.924900
     16 CAP          1.0710     0.5720    -0.3370 ca         1 J2T       0.290000
     17 CAQ          2.2020     1.0830     0.3280 ca         1 J2T      -0.150000
     18 CAR          3.4140     0.3780     0.2650 ca         1 J2T      -0.060300
     19 CAS          4.7190     0.7660     0.9070 c5         1 J2T      -0.035100
     20 HAC         -4.4770     2.5240    -0.0330 ha         1 J2T       0.158000
     21 HAD         -2.0210     3.0290    -0.2990 ha         1 J2T       0.137000
     22 HAF          2.4960    -2.2420    -1.7070 ha         1 J2T       0.121000
     23 HAH          4.9100    -2.4660    -0.2490 hc         1 J2T       0.054700
     24 HAHA         5.4630    -1.1600    -1.3100 hc         1 J2T       0.054700
     25 HAI          5.3030    -1.1790     1.7630 hc         1 J2T       0.047700
     26 HAIA         6.5770    -0.4740     0.7800 hc         1 J2T       0.047700
     27 HNAO         0.0000     2.2840    -0.0970 hn         1 J2T       0.501000
     28 HAQ          2.1400     2.0100     0.8920 ha         1 J2T       0.109000
     29 HAS          4.6030     1.1320     1.9340 hc         1 J2T       0.053700
     30 HASA         5.2320     1.5440     0.3300 hc         1 J2T       0.053700
     31 HAE          0.3260    -1.0120    -1.6190 ha         1 J2T       0.153000
@<TRIPOS>BOND
     1     1     2 2   
     2     1    10 1   
     3     2     3 1   
     4     2    12 1   
     5     3     4 2   
     6     3    20 1   
     7     4    14 1   
     8     4    21 1   
     9     5     6 ar  
    10     5    16 ar  
    11     5    31 1   
    12     6     7 ar  
    13     6    22 1   
    14     7     8 1   
    15     7    18 ar  
    16     8     9 1   
    17     8    23 1   
    18     8    24 1   
    19     9    19 1   
    20     9    25 1   
    21     9    26 1   
    22    10    11 2   
    23    11    12 1   
    24    12    13 1   
    25    13    14 2   
    26    14    15 1   
    27    15    16 1   
    28    15    27 1   
    29    16    17 ar  
    30    17    18 ar  
    31    17    28 1   
    32    18    19 1   
    33    19    29 1   
    34    19    30 1   
@<TRIPOS>SUBSTRUCTURE
     1 J2T         1 TEMP              0 ****  ****    0 ROOT
