@<TRIPOS>MOLECULE
J2T
   31    34     1     0     0
SMALL
bcc


@<TRIPOS>ATOM
      1 NAA         -5.2320    -0.1680    -0.4230 nc         1 J2T      -0.091000
      2 CAB         -4.0790     0.4350    -0.1920 cd         1 J2T      -0.129300
      3 CAC         -3.6920     1.7330     0.2190 cd         1 J2T      -0.014000
      4 CAD         -2.3680     1.9550     0.3420 cc         1 J2T      -0.263300
      5 CAE          1.0600    -0.8930    -0.3950 ca         1 J2T      -0.143000
      6 CAF          2.2760    -1.5590    -0.5310 ca         1 J2T      -0.087000
      7 CAG          3.4640    -0.9160    -0.2400 ca         1 J2T      -0.105300
      8 CAH          4.8800    -1.4150    -0.3250 c5         1 J2T      -0.029100
      9 CAI          5.6520    -0.3920     0.5260 c5         1 J2T      -0.078400
     10 NAJ         -4.9230    -1.4000    -0.7840 nc         1 J2T      -0.040000
     11 NAK         -3.6530    -1.6050    -0.7940 nd         1 J2T      -0.190400
     12 NAL         -3.1040    -0.4630    -0.4240 na         1 J2T       0.360500
     13 NAM         -1.7900    -0.3020    -0.3210 nd         1 J2T      -0.527800
     14 CAN         -1.4250     0.8960     0.0590 cc         1 J2T       0.655200
     15 NAO         -0.1180     1.2010     0.2090 nu         1 J2T      -0.731300
     16 CAP          1.0390     0.4360     0.0350 ca         1 J2T       0.151600
     17 CAQ          2.2460     1.0870     0.3260 ca         1 J2T      -0.168000
     18 CAR          3.4390     0.4100     0.1890 ca         1 J2T      -0.060300
     19 CAS          4.8370     0.9080     0.4310 c5         1 J2T      -0.035100
     20 HAC         -4.4330     2.4920     0.4210 ha         1 J2T       0.176000
     21 HAD         -1.9960     2.9200     0.6550 ha         1 J2T       0.155000
     22 HAF          2.2700    -2.5900    -0.8640 ha         1 J2T       0.139000
     23 HAH          5.0010    -2.4390     0.0310 hc         1 J2T       0.054700
     24 HAHA         5.2240    -1.4000    -1.3640 hc         1 J2T       0.054700
     25 HAI          5.6730    -0.7290     1.5650 hc         1 J2T       0.047700
     26 HAIA         6.6860    -0.2670     0.2040 hc         1 J2T       0.047700
     27 HNAO         0.0560     2.1490     0.5040 hn         1 J2T       0.445800
     28 HAQ          2.2360     2.1180     0.6640 ha         1 J2T       0.127000
     29 HAS          4.9210     1.5330     1.3210 hc         1 J2T       0.053700
     30 HASA         5.1680     1.5180    -0.4160 hc         1 J2T       0.053700
     31 HAE          0.1450    -1.4140    -0.6190 ha         1 J2T       0.171000
@<TRIPOS>BOND
     1     1     2 2   
     2     1    10 1   
     3     2     3 1   
     4     2    12 1   
     5     3     4 2   
     6     3    20 1   
     7     4    14 1   
     8     4    21 1   
     9     5     6 ar  
    10     5    16 ar  
    11     5    31 1   
    12     6     7 ar  
    13     6    22 1   
    14     7     8 1   
    15     7    18 ar  
    16     8     9 1   
    17     8    23 1   
    18     8    24 1   
    19     9    19 1   
    20     9    25 1   
    21     9    26 1   
    22    10    11 2   
    23    11    12 1   
    24    12    13 1   
    25    13    14 2   
    26    14    15 1   
    27    15    16 1   
    28    15    27 1   
    29    16    17 ar  
    30    17    18 ar  
    31    17    28 1   
    32    18    19 1   
    33    19    29 1   
    34    19    30 1   
@<TRIPOS>SUBSTRUCTURE
     1 J2T         1 TEMP              0 ****  ****    0 ROOT
