@<TRIPOS>MOLECULE
J2U
   56    60     1     0     0
SMALL
No Charge or Current Charge


@<TRIPOS>ATOM
      1 C17         26.4480   -33.6290    27.0560 ca         1 J2U      -0.108500
      2 C12         26.8430   -29.4100    24.3440 c5         1 J2U      -0.035100
      3 C13         29.0310   -30.5500    25.2400 ca         1 J2U      -0.079300
      4 C14         28.6010   -30.4710    26.7030 c3         1 J2U       0.016200
      5 C15         27.4210   -31.3890    27.0010 ca         1 J2U      -0.080300
      6 C16         27.5350   -32.7780    26.7910 ca         1 J2U      -0.106500
      7 C19         25.1180   -31.7130    27.7480 ca         1 J2U      -0.108500
      8 C20         26.2060   -30.8620    27.4840 ca         1 J2U      -0.106500
      9 C21         30.2600   -31.1520    24.8890 ca         1 J2U      -0.076000
     10 C22         30.6790   -31.2670    23.5330 cp         1 J2U      -0.039000
     11 C23         29.8250   -30.7500    22.5250 ca         1 J2U      -0.034000
     12 C24         31.9790   -31.9210    23.1800 cp         1 J2U      -0.075000
     13 C10         28.6170   -30.1390    22.8900 ca         1 J2U      -0.190600
     14 C11         28.2160   -30.0440    24.2110 ca         1 J2U      -0.039300
     15 C18         25.2390   -33.0960    27.5340 ca         1 J2U      -0.110000
     16 C01         27.5900   -29.5800    21.9780 c          1 J2U       0.587700
     17 C02         26.7350   -28.7070    22.9390 c5         1 J2U      -0.166700
     18 C03         25.2950   -28.4280    22.4440 c3         1 J2U      -0.003100
     19 C04         25.2340   -27.4960    21.2390 ca         1 J2U      -0.112300
     20 C05         25.5310   -26.1270    21.3890 ca         1 J2U      -0.059500
     21 C06         25.4760   -25.2650    20.2790 ca         1 J2U      -0.173000
     22 C07         25.1240   -25.7650    19.0170 ca         1 J2U       0.139100
     23 C08         24.8240   -27.1270    18.8600 ca         1 J2U      -0.173000
     24 C09         24.8780   -27.9910    19.9690 ca         1 J2U      -0.059500
     25 C25         32.7630   -31.4520    22.0950 ca         1 J2U      -0.059000
     26 C26         33.9830   -32.0680    21.7640 ca         1 J2U      -0.176000
     27 C27         34.4440   -33.1620    22.5080 ca         1 J2U       0.144100
     28 C28         33.6860   -33.6450    23.5850 ca         1 J2U      -0.176000
     29 C29         32.4660   -33.0300    23.9180 ca         1 J2U      -0.059000
     30 O01         27.3390   -30.0260    20.8650 o          1 J2U      -0.502100
     31 O02         25.0730   -24.9220    17.9480 oh         1 J2U      -0.535100
     32 O03         35.6270   -33.7520    22.1790 oh         1 J2U      -0.531100
     33 H1          26.5430   -34.6990    26.8900 ha         1 J2U       0.113000
     34 H3          26.7690   -28.6950    25.1720 hc         1 J2U       0.064700
     35 H4          29.4370   -30.7370    27.3610 hc         1 J2U       0.056200
     36 H5          28.3550   -29.4320    26.9560 hc         1 J2U       0.056200
     37 H6          28.4670   -33.1980    26.4190 ha         1 J2U       0.112000
     38 H7          24.1830   -31.3000    28.1190 ha         1 J2U       0.113000
     39 H8          26.1000   -29.7930    27.6520 ha         1 J2U       0.112000
     40 H9          30.9020   -31.5350    25.6770 ha         1 J2U       0.114000
     41 H10         30.0930   -30.8350    21.4740 ha         1 J2U       0.133000
     42 H12         24.3970   -33.7550    27.7390 ha         1 J2U       0.113000
     43 H15         27.2740   -27.7590    23.0520 hc         1 J2U       0.077700
     44 H16         24.7910   -29.3770    22.2220 hc         1 J2U       0.048700
     45 H17         24.7180   -27.9780    23.2620 hc         1 J2U       0.048700
     46 H18         25.8030   -25.7300    22.3650 ha         1 J2U       0.110000
     47 H19         25.7070   -24.2100    20.4000 ha         1 J2U       0.119000
     48 H20         24.5500   -27.5240    17.8860 ha         1 J2U       0.119000
     49 H21         24.6480   -29.0470    19.8380 ha         1 J2U       0.110000
     50 H22         32.4310   -30.5960    21.5130 ha         1 J2U       0.116000
     51 H23         34.5720   -31.6920    20.9310 ha         1 J2U       0.122000
     52 H24         34.0330   -34.4960    24.1670 ha         1 J2U       0.122000
     53 H25         31.8860   -33.4280    24.7480 ha         1 J2U       0.116000
     54 H27         24.8120   -25.4400    17.1570 ho         1 J2U       0.464000
     55 H28         35.7880   -34.4930    22.8010 ho         1 J2U       0.465000
     56 H2          26.0670   -30.1710    24.4860 hc         1 J2U       0.064700
@<TRIPOS>BOND
     1     1     6 ar  
     2     1    15 ar  
     3     1    33 1   
     4     2    14 1   
     5     2    17 1   
     6     2    34 1   
     7     2    56 1   
     8     3     4 1   
     9     3     9 ar  
    10     3    14 ar  
    11     4     5 1   
    12     4    35 1   
    13     4    36 1   
    14     5     6 ar  
    15     5     8 ar  
    16     6    37 1   
    17     7     8 ar  
    18     7    15 ar  
    19     7    38 1   
    20     8    39 1   
    21     9    10 ar  
    22     9    40 1   
    23    10    11 ar  
    24    10    12 1   
    25    11    13 ar  
    26    11    41 1   
    27    12    25 ar  
    28    12    29 ar  
    29    13    14 ar  
    30    13    16 1   
    31    15    42 1   
    32    16    17 1   
    33    16    30 2   
    34    17    18 1   
    35    17    43 1   
    36    18    19 1   
    37    18    44 1   
    38    18    45 1   
    39    19    20 ar  
    40    19    24 ar  
    41    20    21 ar  
    42    20    46 1   
    43    21    22 ar  
    44    21    47 1   
    45    22    23 ar  
    46    22    31 1   
    47    23    24 ar  
    48    23    48 1   
    49    24    49 1   
    50    25    26 ar  
    51    25    50 1   
    52    26    27 ar  
    53    26    51 1   
    54    27    28 ar  
    55    27    32 1   
    56    28    29 ar  
    57    28    52 1   
    58    29    53 1   
    59    31    54 1   
    60    32    55 1   
@<TRIPOS>SUBSTRUCTURE
     1 J2U         1 TEMP              0 ****  ****    0 ROOT
