@<TRIPOS>MOLECULE
J2U
   56    60     1     0     0
SMALL
bcc


@<TRIPOS>ATOM
      1 C17         26.0960   -33.4320    26.6350 ca         1 J2U      -0.126500
      2 C12         27.1150   -29.1770    24.4050 c5         1 J2U      -0.035100
      3 C13         29.1240   -30.6030    25.2650 ca         1 J2U      -0.079300
      4 C14         28.6550   -30.6200    26.6940 c3         1 J2U       0.016200
      5 C15         27.3750   -31.3960    26.8910 ca         1 J2U      -0.080300
      6 C16         27.2630   -32.7080    26.4350 ca         1 J2U      -0.124500
      7 C19         25.1190   -31.5470    27.7520 ca         1 J2U      -0.126500
      8 C20         26.2890   -30.8260    27.5490 ca         1 J2U      -0.124500
      9 C21         30.2940   -31.2440    24.8810 ca         1 J2U      -0.094000
     10 C22         30.7700   -31.2480    23.5590 cp         1 J2U      -0.039000
     11 C23         30.0380   -30.5690    22.5930 ca         1 J2U      -0.052000
     12 C24         32.0250   -31.9450    23.2160 cp         1 J2U      -0.075000
     13 C10         28.8760   -29.9120    22.9760 ca         1 J2U      -0.190600
     14 C11         28.4070   -29.9290    24.2790 ca         1 J2U      -0.039300
     15 C18         25.0190   -32.8530    27.2950 ca         1 J2U      -0.128000
     16 C01         27.9730   -29.1100    22.1340 c          1 J2U       0.587700
     17 C02         26.9430   -28.4650    23.0520 c5         1 J2U      -0.166700
     18 C03         25.5070   -28.4960    22.5240 c3         1 J2U      -0.003100
     19 C04         25.2620   -27.6550    21.3010 ca         1 J2U      -0.112300
     20 C05         25.3910   -26.2680    21.3450 ca         1 J2U      -0.077500
     21 C06         25.1600   -25.4790    20.2300 ca         1 J2U      -0.191000
     22 C07         24.7840   -26.0690    19.0250 ca         1 J2U       0.139100
     23 C08         24.6410   -27.4520    18.9650 ca         1 J2U      -0.191000
     24 C09         24.8800   -28.2250    20.0930 ca         1 J2U      -0.077500
     25 C25         32.9050   -31.4180    22.2670 ca         1 J2U      -0.077000
     26 C26         34.0860   -32.0590    21.9390 ca         1 J2U      -0.194000
     27 C27         34.4240   -33.2600    22.5590 ca         1 J2U       0.144100
     28 C28         33.5580   -33.8030    23.5050 ca         1 J2U      -0.194000
     29 C29         32.3780   -33.1500    23.8230 ca         1 J2U      -0.077000
     30 O01         28.0560   -28.9750    20.9340 o          1 J2U      -0.502100
     31 O02         24.5730   -25.2630    17.9630 oh         1 J2U      -0.496100
     32 O03         35.5870   -33.8420    22.2100 oh         1 J2U      -0.492100
     33 H1          26.0270   -34.4500    26.2740 ha         1 J2U       0.131000
     34 H3          27.1180   -28.4830    25.2470 hc         1 J2U       0.064700
     35 H4          29.4390   -31.0490    27.3250 hc         1 J2U       0.056200
     36 H5          28.5100   -29.5940    27.0450 hc         1 J2U       0.056200
     37 H6          28.0960   -33.1700    25.9180 ha         1 J2U       0.130000
     38 H7          24.2850   -31.0850    28.2650 ha         1 J2U       0.131000
     39 H8          26.3580   -29.8040    27.9050 ha         1 J2U       0.130000
     40 H9          30.8760   -31.7460    25.6460 ha         1 J2U       0.132000
     41 H10         30.3570   -30.5530    21.5580 ha         1 J2U       0.151000
     42 H12         24.1080   -33.4170    27.4500 ha         1 J2U       0.131000
     43 H15         27.2560   -27.4210    23.1670 hc         1 J2U       0.077700
     44 H16         25.2210   -29.5330    22.3270 hc         1 J2U       0.048700
     45 H17         24.8570   -28.1540    23.3340 hc         1 J2U       0.048700
     46 H18         25.6760   -25.7830    22.2730 ha         1 J2U       0.128000
     47 H19         25.2680   -24.4020    20.2910 ha         1 J2U       0.137000
     48 H20         24.3440   -27.9300    18.0380 ha         1 J2U       0.137000
     49 H21         24.7670   -29.3000    20.0210 ha         1 J2U       0.128000
     50 H22         32.6770   -30.4750    21.7870 ha         1 J2U       0.134000
     51 H23         34.7550   -31.6240    21.2080 ha         1 J2U       0.140000
     52 H24         33.7980   -34.7420    23.9910 ha         1 J2U       0.140000
     53 H25         31.7150   -33.6060    24.5470 ha         1 J2U       0.134000
     54 H27         24.3230   -25.7830    17.1910 ho         1 J2U       0.425000
     55 H28         35.7180   -34.6590    22.7040 ho         1 J2U       0.426000
     56 H2          26.2920   -29.8760    24.5860 hc         1 J2U       0.064700
@<TRIPOS>BOND
     1     1     6 ar  
     2     1    15 ar  
     3     1    33 1   
     4     2    14 1   
     5     2    17 1   
     6     2    34 1   
     7     2    56 1   
     8     3     4 1   
     9     3     9 ar  
    10     3    14 ar  
    11     4     5 1   
    12     4    35 1   
    13     4    36 1   
    14     5     6 ar  
    15     5     8 ar  
    16     6    37 1   
    17     7     8 ar  
    18     7    15 ar  
    19     7    38 1   
    20     8    39 1   
    21     9    10 ar  
    22     9    40 1   
    23    10    11 ar  
    24    10    12 1   
    25    11    13 ar  
    26    11    41 1   
    27    12    25 ar  
    28    12    29 ar  
    29    13    14 ar  
    30    13    16 1   
    31    15    42 1   
    32    16    17 1   
    33    16    30 2   
    34    17    18 1   
    35    17    43 1   
    36    18    19 1   
    37    18    44 1   
    38    18    45 1   
    39    19    20 ar  
    40    19    24 ar  
    41    20    21 ar  
    42    20    46 1   
    43    21    22 ar  
    44    21    47 1   
    45    22    23 ar  
    46    22    31 1   
    47    23    24 ar  
    48    23    48 1   
    49    24    49 1   
    50    25    26 ar  
    51    25    50 1   
    52    26    27 ar  
    53    26    51 1   
    54    27    28 ar  
    55    27    32 1   
    56    28    29 ar  
    57    28    52 1   
    58    29    53 1   
    59    31    54 1   
    60    32    55 1   
@<TRIPOS>SUBSTRUCTURE
     1 J2U         1 TEMP              0 ****  ****    0 ROOT
