@<TRIPOS>MOLECULE
J2V
   44    47     1     0     0
SMALL
No Charge or Current Charge


@<TRIPOS>ATOM
      1 C17         -1.3390    -1.7390    -0.8450 ca         1 J2V       0.388900
      2 C16         -1.8600    -0.8570     0.1250 ca         1 J2V      -0.110800
      3 C15          2.2030     1.1690    -0.2090 ca         1 J2V      -0.224000
      4 C19         -2.3770    -3.5700     0.1180 ca         1 J2V       0.583300
      5 C20         -2.9520    -2.7640     1.1110 ca         1 J2V      -0.191000
      6 C21         -2.6990    -1.3840     1.1190 ca         1 J2V      -0.018000
      7 C23          5.9170     1.1320    -0.0020 c          1 J2V       0.609100
      8 C11          1.2080    -0.7630     0.7990 ca         1 J2V      -0.176000
      9 C12          2.4980    -1.2960     0.9400 ca         1 J2V       0.376900
     10 C27         -2.1000    -5.8170    -0.8300 c3         1 J2V       0.159900
     11 C1          -2.5340     1.6370    -0.0490 ca         1 J2V       0.339800
     12 C2          -1.8140     2.7900    -0.1980 ca         1 J2V      -0.089200
     13 C3          -2.4700     4.0160    -0.3640 ca         1 J2V      -0.088000
     14 C4          -3.8800     3.9690    -0.3710 ca         1 J2V      -0.145000
     15 C5          -4.5400     2.7240    -0.2200 ca         1 J2V       0.314900
     16 N6          -3.8800     1.5480    -0.0630 nb         1 J2V      -0.618000
     17 C7          -1.5790     0.5770     0.0710 cc         1 J2V      -0.155000
     18 C8          -0.2960     1.1360     0.0010 cd         1 J2V      -0.003300
     19 N9          -0.4500     2.5380    -0.1710 na         1 J2V      -0.207700
     20 C10          1.0300     0.4970     0.1920 ca         1 J2V       0.024200
     21 N13          3.6120    -0.6520     0.5320 nb         1 J2V      -0.672000
     22 C14          3.4550     0.5700    -0.0070 ca         1 J2V       0.493900
     23 N18         -1.5820    -3.0700    -0.8520 nb         1 J2V      -0.758000
     24 N22          4.6220     1.1900    -0.4720 ns         1 J2V      -0.337900
     25 O24          6.2610     0.5290     1.0060 o          1 J2V      -0.521100
     26 C25          6.9150     1.9240    -0.8400 c3         1 J2V      -0.187100
     27 O26         -2.6520    -4.9170     0.1510 os         1 J2V      -0.461300
     28 H35         -0.6990    -1.3650    -1.6440 h4         1 J2V       0.020100
     29 H34          2.1570     2.1400    -0.6900 ha         1 J2V       0.117000
     30 H36         -3.5900    -3.2130     1.8660 ha         1 J2V       0.137000
     31 H37         -3.1390    -0.7400     1.8780 ha         1 J2V       0.132000
     32 H32          0.3770    -1.3290     1.1990 ha         1 J2V       0.141000
     33 H33          2.6460    -2.2710     1.4040 h4         1 J2V       0.029100
     34 H42         -1.0030    -5.8050    -0.8010 h1         1 J2V       0.045700
     35 H44         -2.4330    -6.8450    -0.6350 h1         1 J2V       0.045700
     36 H43         -2.4260    -5.5420    -1.8420 h1         1 J2V       0.045700
     37 H28         -1.9250     4.9500    -0.4840 ha         1 J2V       0.121000
     38 H29         -4.4630     4.8780    -0.4950 ha         1 J2V       0.123000
     39 H30         -5.6280     2.6710    -0.2290 h4         1 J2V       0.020100
     40 H31          0.2950     3.2250    -0.2160 hn         1 J2V       0.355000
     41 H38          4.4830     1.7800    -1.2800 hn         1 J2V       0.148000
     42 H39          7.9350     1.8750    -0.4400 hc         1 J2V       0.064033
     43 H40          6.8680     1.5710    -1.8760 hc         1 J2V       0.064033
     44 H41          6.5650     2.9580    -0.9300 hc         1 J2V       0.064033
@<TRIPOS>BOND
     1     1     2 ar  
     2     1    23 ar  
     3     1    28 1   
     4     2     6 ar  
     5     2    17 1   
     6     3    20 ar  
     7     3    22 ar  
     8     3    29 1   
     9     4     5 ar  
    10     4    23 ar  
    11     4    27 1   
    12     5     6 ar  
    13     5    30 1   
    14     6    31 1   
    15     7    24 1   
    16     7    25 2   
    17     7    26 1   
    18     8     9 ar  
    19     8    20 ar  
    20     8    32 1   
    21     9    21 ar  
    22     9    33 1   
    23    10    27 1   
    24    10    34 1   
    25    10    35 1   
    26    10    36 1   
    27    11    12 ar  
    28    11    16 ar  
    29    11    17 1   
    30    12    13 ar  
    31    12    19 1   
    32    13    14 ar  
    33    13    37 1   
    34    14    15 ar  
    35    14    38 1   
    36    15    16 ar  
    37    15    39 1   
    38    17    18 2   
    39    18    19 1   
    40    18    20 1   
    41    19    40 1   
    42    21    22 ar  
    43    22    24 1   
    44    24    41 1   
    45    26    42 1   
    46    26    43 1   
    47    26    44 1   
@<TRIPOS>SUBSTRUCTURE
     1 J2V         1 TEMP              0 ****  ****    0 ROOT
