@<TRIPOS>MOLECULE
J2V
   44    47     1     0     0
SMALL
bcc


@<TRIPOS>ATOM
      1 C17         -1.1030    -1.7460    -0.7010 ca         1 J2V       0.454200
      2 C16         -1.8490    -0.8680     0.0710 ca         1 J2V      -0.176100
      3 C15          2.1230     1.1220    -0.1370 ca         1 J2V      -0.307300
      4 C19         -2.3180    -3.5580    -0.0640 ca         1 J2V       0.648600
      5 C20         -3.1620    -2.7740     0.7320 ca         1 J2V      -0.274300
      6 C21         -2.9160    -1.4220     0.7930 ca         1 J2V      -0.036000
      7 C23          5.8060     0.8030    -0.3840 c          1 J2V       0.676100
      8 C11          1.1690    -0.4920     1.3400 ca         1 J2V      -0.259300
      9 C12          2.4450    -0.9790     1.5260 ca         1 J2V       0.442200
     10 C27         -1.7140    -5.6840    -0.9010 c3         1 J2V       0.136700
     11 C1          -2.4980     1.6200    -0.0670 ca         1 J2V       0.405100
     12 C2          -1.7810     2.8350    -0.0450 ca         1 J2V      -0.154500
     13 C3          -2.4490     4.0450    -0.1850 ca         1 J2V      -0.106000
     14 C4          -3.8170     3.9590    -0.3550 ca         1 J2V      -0.228300
     15 C5          -4.4480     2.7060    -0.3810 ca         1 J2V       0.380200
     16 N6          -3.8190     1.5530    -0.2430 nb         1 J2V      -0.618000
     17 C7          -1.5510     0.5620     0.1110 cc         1 J2V      -0.155000
     18 C8          -0.3220     1.1730     0.2410 cd         1 J2V      -0.003300
     19 N9          -0.4680     2.5310     0.1240 na         1 J2V      -0.157400
     20 C10          0.9990     0.5930     0.4750 ca         1 J2V       0.024200
     21 N13          3.5310    -0.4830     0.9380 nb         1 J2V      -0.672000
     22 C14          3.3730     0.5480     0.1280 ca         1 J2V       0.559200
     23 N18         -1.3230    -3.0570    -0.7640 nb         1 J2V      -0.758000
     24 N22          4.4730     1.1000    -0.5140 ns         1 J2V      -0.571400
     25 O24          6.2480    -0.0430     0.3620 o          1 J2V      -0.521100
     26 C25          6.6740     1.6500    -1.2820 c3         1 J2V      -0.187100
     27 O26         -2.5580    -4.8700    -0.0990 os         1 J2V      -0.438100
     28 H35         -0.2850    -1.3730    -1.3070 h4         1 J2V       0.020100
     29 H34          2.0420     1.9530    -0.8270 ha         1 J2V       0.135000
     30 H36         -3.9770    -3.2250     1.2820 ha         1 J2V       0.155000
     31 H37         -3.5410    -0.7890     1.4070 ha         1 J2V       0.150000
     32 H32          0.3350    -0.9320     1.8680 ha         1 J2V       0.159000
     33 H33          2.6090    -1.8180     2.1930 h4         1 J2V       0.029100
     34 H42         -0.6710    -5.6210    -0.5890 h1         1 J2V       0.045700
     35 H44         -2.0680    -6.7030    -0.7650 h1         1 J2V       0.045700
     36 H43         -1.7790    -5.4190    -1.9570 h1         1 J2V       0.045700
     37 H28         -1.9340     4.9960    -0.1640 ha         1 J2V       0.139000
     38 H29         -4.4130     4.8540    -0.4720 ha         1 J2V       0.141000
     39 H30         -5.5220     2.6570    -0.5200 h4         1 J2V       0.020100
     40 H31          0.2680     3.2020     0.2800 hn         1 J2V       0.304700
     41 H38          4.2570     1.8510    -1.1520 hn         1 J2V       0.314500
     42 H39          7.7220     1.4190    -1.1160 hc         1 J2V       0.064033
     43 H40          6.4360     1.4660    -2.3300 hc         1 J2V       0.064033
     44 H41          6.5130     2.7120    -1.0920 hc         1 J2V       0.064033
@<TRIPOS>BOND
     1     1     2 ar  
     2     1    23 ar  
     3     1    28 1   
     4     2     6 ar  
     5     2    17 1   
     6     3    20 ar  
     7     3    22 ar  
     8     3    29 1   
     9     4     5 ar  
    10     4    23 ar  
    11     4    27 1   
    12     5     6 ar  
    13     5    30 1   
    14     6    31 1   
    15     7    24 1   
    16     7    25 2   
    17     7    26 1   
    18     8     9 ar  
    19     8    20 ar  
    20     8    32 1   
    21     9    21 ar  
    22     9    33 1   
    23    10    27 1   
    24    10    34 1   
    25    10    35 1   
    26    10    36 1   
    27    11    12 ar  
    28    11    16 ar  
    29    11    17 1   
    30    12    13 ar  
    31    12    19 1   
    32    13    14 ar  
    33    13    37 1   
    34    14    15 ar  
    35    14    38 1   
    36    15    16 ar  
    37    15    39 1   
    38    17    18 2   
    39    18    19 1   
    40    18    20 1   
    41    19    40 1   
    42    21    22 ar  
    43    22    24 1   
    44    24    41 1   
    45    26    42 1   
    46    26    43 1   
    47    26    44 1   
@<TRIPOS>SUBSTRUCTURE
     1 J2V         1 TEMP              0 ****  ****    0 ROOT
