@<TRIPOS>MOLECULE
J2W
   36    37     1     0     0
SMALL
bcc


@<TRIPOS>ATOM
      1 C13         -2.0780    -0.1940    -0.4150 ca         1 J2W      -0.179600
      2 C21          3.7690    -1.1610     0.7120 ca         1 J2W      -0.076500
      3 C24          3.6920     0.9160    -0.4610 ca         1 J2W      -0.076500
      4 C26          2.3080     0.8530    -0.5220 ca         1 J2W      -0.177500
      5 C28          5.9330    -0.0290     0.1820 ce         1 J2W       0.667800
      6 C01         -6.7430     0.3830     0.5080 c3         1 J2W       0.134700
      7 O05         -5.4080     0.8500     0.4590 os         1 J2W      -0.343900
      8 C06         -4.4470     0.0170     0.0100 ca         1 J2W       0.038100
      9 C07         -4.6460    -1.2800    -0.4280 ca         1 J2W      -0.150000
     10 C09         -3.5620    -2.0420    -0.8610 ca         1 J2W      -0.138000
     11 C11         -2.2910    -1.5080    -0.8490 ca         1 J2W      -0.104000
     12 C14         -0.7110     0.4030    -0.4760 c          1 J2W       0.701700
     13 O15         -0.4970     1.4990    -0.9560 o          1 J2W      -0.550100
     14 N16          0.2560    -0.4080     0.0330 ns         1 J2W      -0.474100
     15 C18          1.6390    -0.2340     0.0440 ca         1 J2W       0.094600
     16 C19          2.3920    -1.2360     0.6650 ca         1 J2W      -0.177500
     17 C23          4.4470    -0.0820     0.1480 ca         1 J2W      -0.229900
     18 N29          6.4650     1.2270     0.2110 nv         1 J2W      -0.920800
     19 N32          6.6980    -1.0530     0.1420 n2         1 J2W      -0.850100
     20 C34         -3.1550     0.5740     0.0130 ca         1 J2W       0.176100
     21 O35         -2.9560     1.8260     0.4520 oh         1 J2W      -0.469100
     22 H1           4.3160    -1.9510     1.2110 ha         1 J2W       0.139000
     23 H2           4.1850     1.7620    -0.9210 ha         1 J2W       0.139000
     24 H3           1.7700     1.6470    -1.0110 ha         1 J2W       0.149500
     25 H4          -7.3410     1.2000     0.9030 h1         1 J2W       0.044700
     26 H5          -7.1160     0.1190    -0.4840 h1         1 J2W       0.044700
     27 H6          -6.8440    -0.4820     1.1680 h1         1 J2W       0.044700
     28 H7          -5.6370    -1.7130    -0.4410 ha         1 J2W       0.139000
     29 H8          -3.7270    -3.0520    -1.2100 ha         1 J2W       0.139000
     30 H9          -1.4570    -2.0990    -1.2040 ha         1 J2W       0.139000
     31 H10         -0.0650    -1.2530     0.4820 hn         1 J2W       0.320500
     32 H11          1.8900    -2.0830     1.1160 ha         1 J2W       0.149500
     33 H12          5.9440     1.9540     0.6720 hn         1 J2W       0.412300
     34 H13          7.4610     1.2810     0.3510 hn         1 J2W       0.412300
     35 H14          6.1580    -1.9010     0.0130 hn         1 J2W       0.386400
     36 H15         -3.7940     2.2070     0.7440 ho         1 J2W       0.447000
@<TRIPOS>BOND
     1     1    11 ar  
     2     1    12 1   
     3     1    20 ar  
     4     2    16 ar  
     5     2    17 ar  
     6     2    22 1   
     7     3     4 ar  
     8     3    17 ar  
     9     3    23 1   
    10     4    15 ar  
    11     4    24 1   
    12     5    17 1   
    13     5    18 1   
    14     5    19 2   
    15     6     7 1   
    16     6    25 1   
    17     6    26 1   
    18     6    27 1   
    19     7     8 1   
    20     8     9 ar  
    21     8    20 ar  
    22     9    10 ar  
    23     9    28 1   
    24    10    11 ar  
    25    10    29 1   
    26    11    30 1   
    27    12    13 2   
    28    12    14 1   
    29    14    15 1   
    30    14    31 1   
    31    15    16 ar  
    32    16    32 1   
    33    18    33 1   
    34    18    34 1   
    35    19    35 1   
    36    20    21 1   
    37    21    36 1   
@<TRIPOS>SUBSTRUCTURE
     1 J2W         1 TEMP              0 ****  ****    0 ROOT
