@<TRIPOS>MOLECULE
J2W
   36    37     1     0     0
SMALL
No Charge or Current Charge


@<TRIPOS>ATOM
      1 C13         -2.1080    -0.1070    -0.2220 ca         1 J2W      -0.179600
      2 C21          3.9080    -1.2660     0.4380 ca         1 J2W      -0.058500
      3 C24          3.8110     1.0070    -0.4050 ca         1 J2W      -0.058500
      4 C26          2.4070     0.9360    -0.4360 ca         1 J2W      -0.159500
      5 C28          6.0740    -0.0230     0.0420 ce         1 J2W       0.667800
      6 C01         -7.0020     0.3760     0.2580 c3         1 J2W       0.157900
      7 O05         -5.6540     0.8850     0.2320 os         1 J2W      -0.367100
      8 C06         -4.5570     0.0700     0.0020 ca         1 J2W       0.038100
      9 C07         -4.6860    -1.3160    -0.2180 ca         1 J2W      -0.132000
     10 C09         -3.5400    -2.0930    -0.4370 ca         1 J2W      -0.120000
     11 C11         -2.2670    -1.5010    -0.4390 ca         1 J2W      -0.086000
     12 C14         -0.7180     0.5160    -0.2380 c          1 J2W       0.634700
     13 O15         -0.5270     1.7070    -0.4530 o          1 J2W      -0.550100
     14 N16          0.3240    -0.3830    -0.0280 ns         1 J2W      -0.148000
     15 C18          1.7380    -0.2340    -0.0200 ca         1 J2W       0.002000
     16 C19          2.5050    -1.3320     0.4070 ca         1 J2W      -0.159500
     17 C23          4.5820    -0.0860     0.0500 ca         1 J2W      -0.229900
     18 N29          6.6510     1.1650     0.2840 nv         1 J2W      -1.031200
     19 N32          6.8150    -1.0490    -0.0190 n2         1 J2W      -0.850100
     20 C34         -3.2770     0.6680    -0.0010 ca         1 J2W       0.176100
     21 O35         -3.2190     2.0080     0.2520 oh         1 J2W      -0.508100
     22 H1           4.4650    -2.1350     0.7830 ha         1 J2W       0.121000
     23 H2           4.2960     1.9180    -0.7530 ha         1 J2W       0.121000
     24 H3           1.8610     1.8000    -0.8010 ha         1 J2W       0.131500
     25 H4          -7.7120     1.1890     0.4540 h1         1 J2W       0.044700
     26 H5          -7.2650    -0.0790    -0.7060 h1         1 J2W       0.044700
     27 H6          -7.1200    -0.3760     1.0480 h1         1 J2W       0.044700
     28 H7          -5.6560    -1.8040    -0.2230 ha         1 J2W       0.121000
     29 H8          -3.6380    -3.1630    -0.6110 ha         1 J2W       0.121000
     30 H9          -1.4120    -2.1450    -0.6330 ha         1 J2W       0.121000
     31 H10          0.0170    -1.3260     0.1660 hn         1 J2W       0.154000
     32 H11          2.0110    -2.2490     0.7220 ha         1 J2W       0.131500
     33 H12          6.0660     1.8310     0.7730 hn         1 J2W       0.467500
     34 H13          7.6100     1.1000     0.6020 hn         1 J2W       0.467500
     35 H14          6.2150    -1.8520    -0.2470 hn         1 J2W       0.386400
     36 H15         -4.1490     2.2990     0.3750 ho         1 J2W       0.486000
@<TRIPOS>BOND
     1     1    11 ar  
     2     1    12 1   
     3     1    20 ar  
     4     2    16 ar  
     5     2    17 ar  
     6     2    22 1   
     7     3     4 ar  
     8     3    17 ar  
     9     3    23 1   
    10     4    15 ar  
    11     4    24 1   
    12     5    17 1   
    13     5    18 1   
    14     5    19 2   
    15     6     7 1   
    16     6    25 1   
    17     6    26 1   
    18     6    27 1   
    19     7     8 1   
    20     8     9 ar  
    21     8    20 ar  
    22     9    10 ar  
    23     9    28 1   
    24    10    11 ar  
    25    10    29 1   
    26    11    30 1   
    27    12    13 2   
    28    12    14 1   
    29    14    15 1   
    30    14    31 1   
    31    15    16 ar  
    32    16    32 1   
    33    18    33 1   
    34    18    34 1   
    35    19    35 1   
    36    20    21 1   
    37    21    36 1   
@<TRIPOS>SUBSTRUCTURE
     1 J2W         1 TEMP              0 ****  ****    0 ROOT
