@<TRIPOS>MOLECULE
J2X
   60    64     1     0     0
SMALL
No Charge or Current Charge


@<TRIPOS>ATOM
      1 C10         24.3820   -27.1300    21.9060 ca         1 J2X      -0.059500
      2 C12         28.3040   -29.5740    25.1750 ca         1 J2X      -0.033300
      3 C13         27.2250   -28.5840    25.5690 c5         1 J2X      -0.032100
      4 C14         28.7780   -30.6640    25.9290 ca         1 J2X      -0.081300
      5 C15         28.1840   -31.0030    27.2940 c3         1 J2X       0.016200
      6 C16         26.7900   -31.6160    27.1810 ca         1 J2X      -0.079300
      7 C17         25.7130   -31.0800    27.9160 ca         1 J2X      -0.107000
      8 C18         24.4290   -31.6390    27.8030 ca         1 J2X      -0.109000
      9 C19         24.2120   -32.7400    26.9580 ca         1 J2X      -0.111000
     10 C20         25.2820   -33.2830    26.2270 ca         1 J2X      -0.109000
     11 C21         26.5660   -32.7240    26.3390 ca         1 J2X      -0.107000
     12 C22         29.8210   -31.4500    25.3910 ca         1 J2X      -0.076000
     13 C23         30.4010   -31.1610    24.1240 cp         1 J2X      -0.042000
     14 C26         31.5420   -33.4050    23.7940 ca         1 J2X      -0.059500
     15 C27         32.5810   -34.1980    23.2730 ca         1 J2X      -0.177000
     16 C28         33.6040   -33.6060    22.5180 ca         1 J2X       0.143100
     17 C29         33.5900   -32.2240    22.2840 ca         1 J2X      -0.177000
     18 C30         32.5530   -31.4300    22.8030 ca         1 J2X      -0.059500
     19 C01         28.2000   -28.1130    23.3150 c          1 J2X       0.604700
     20 C02         26.9180   -27.8850    24.1740 c5         1 J2X      -0.150000
     21 C03         26.6060   -26.3680    24.2960 c3         1 J2X       0.177600
     22 C04         25.7190   -28.6160    23.4870 c3         1 J2X      -0.010100
     23 C05         25.3590   -28.1300    22.0850 ca         1 J2X      -0.119300
     24 C06         25.9830   -28.6950    20.9550 ca         1 J2X      -0.059500
     25 C07         25.6460   -28.2520    19.6640 ca         1 J2X      -0.173500
     26 C08         24.6810   -27.2500    19.4940 ca         1 J2X       0.142100
     27 C09         24.0470   -26.6890    20.6130 ca         1 J2X      -0.173500
     28 C11         28.8530   -29.2870    23.9410 ca         1 J2X      -0.183600
     29 C24         29.8970   -30.0500    23.3990 ca         1 J2X      -0.034000
     30 C25         31.5070   -32.0050    23.5700 cp         1 J2X      -0.074000
     31 O02         24.3610   -26.8280    18.2380 oh         1 J2X      -0.534100
     32 O03         34.6130   -34.3660    22.0100 oh         1 J2X      -0.531100
     33 O04         27.6790   -25.6720    24.9410 oh         1 J2X      -0.661000
     34 H1          23.8830   -26.6920    22.7680 ha         1 J2X       0.110500
     35 H2          27.6060   -27.8840    26.3210 hc         1 J2X       0.069700
     36 H3          26.3380   -29.0600    26.0020 hc         1 J2X       0.069700
     37 H4          28.8390   -31.6990    27.8310 hc         1 J2X       0.056700
     38 H5          28.1560   -30.0980    27.9130 hc         1 J2X       0.056700
     39 H6          25.8680   -30.2260    28.5720 ha         1 J2X       0.111500
     40 H7          23.6010   -31.2190    28.3710 ha         1 J2X       0.112500
     41 H8          23.2180   -33.1730    26.8710 ha         1 J2X       0.113000
     42 H9          25.1160   -34.1360    25.5730 ha         1 J2X       0.112500
     43 H10         27.3870   -33.1510    25.7680 ha         1 J2X       0.111500
     44 H11         30.2000   -32.2880    25.9700 ha         1 J2X       0.113000
     45 H12         30.7510   -33.8850    24.3650 ha         1 J2X       0.116500
     46 H13         32.5800   -35.2690    23.4580 ha         1 J2X       0.121500
     47 H14         34.3850   -31.7650    21.7010 ha         1 J2X       0.121500
     48 H15         32.5690   -30.3580    22.6200 ha         1 J2X       0.116500
     49 H16         26.4410   -25.9470    23.2950 h1         1 J2X       0.030700
     50 H17         25.6760   -26.2410    24.8680 h1         1 J2X       0.030700
     51 H18         24.8320   -28.5330    24.1290 hc         1 J2X       0.053200
     52 H19         25.9270   -29.6930    23.4430 hc         1 J2X       0.053200
     53 H20         26.7300   -29.4770    21.0750 ha         1 J2X       0.110500
     54 H21         26.1330   -28.6900    18.7970 ha         1 J2X       0.120000
     55 H22         23.2940   -25.9140    20.4910 ha         1 J2X       0.120000
     56 H23         30.2980   -29.8010    22.4200 ha         1 J2X       0.132000
     57 H24         23.6740   -26.1310    18.3110 ho         1 J2X       0.463000
     58 H25         34.4610   -35.2990    22.2720 ho         1 J2X       0.465000
     59 H26         27.4180   -24.7260    24.9900 ho         1 J2X       0.446000
     60 O01         28.6580   -27.4590    22.3840 o          1 J2X      -0.501100
@<TRIPOS>BOND
     1     1    23 ar  
     2     1    27 ar  
     3     1    34 1   
     4     2     3 1   
     5     2     4 ar  
     6     2    28 ar  
     7     3    20 1   
     8     3    35 1   
     9     3    36 1   
    10     4     5 1   
    11     4    12 ar  
    12     5     6 1   
    13     5    37 1   
    14     5    38 1   
    15     6     7 ar  
    16     6    11 ar  
    17     7     8 ar  
    18     7    39 1   
    19     8     9 ar  
    20     8    40 1   
    21     9    10 ar  
    22     9    41 1   
    23    10    11 ar  
    24    10    42 1   
    25    11    43 1   
    26    12    13 ar  
    27    12    44 1   
    28    13    29 ar  
    29    13    30 1   
    30    14    15 ar  
    31    14    30 ar  
    32    14    45 1   
    33    15    16 ar  
    34    15    46 1   
    35    16    17 ar  
    36    16    32 1   
    37    17    18 ar  
    38    17    47 1   
    39    18    30 ar  
    40    18    48 1   
    41    19    20 1   
    42    19    28 1   
    43    19    60 2   
    44    20    21 1   
    45    20    22 1   
    46    21    33 1   
    47    21    49 1   
    48    21    50 1   
    49    22    23 1   
    50    22    51 1   
    51    22    52 1   
    52    23    24 ar  
    53    24    25 ar  
    54    24    53 1   
    55    25    26 ar  
    56    25    54 1   
    57    26    27 ar  
    58    26    31 1   
    59    27    55 1   
    60    28    29 ar  
    61    29    56 1   
    62    31    57 1   
    63    32    58 1   
    64    33    59 1   
@<TRIPOS>SUBSTRUCTURE
     1 J2X         1 TEMP              0 ****  ****    0 ROOT
