@<TRIPOS>MOLECULE
J2X
   60    64     1     0     0
SMALL
abcg2


@<TRIPOS>ATOM
      1 C10         24.4640   -26.8630    21.9300 ca         1 J2X      -0.059500
      2 C12         28.2530   -29.6970    25.0650 ca         1 J2X      -0.033300
      3 C13         27.1550   -28.7310    25.3910 c5         1 J2X      -0.032100
      4 C14         28.7630   -30.7280    25.8520 ca         1 J2X      -0.081300
      5 C15         28.1810   -31.0370    27.2040 c3         1 J2X       0.016200
      6 C16         26.8000   -31.6440    27.1210 ca         1 J2X      -0.079300
      7 C17         25.7320   -31.0830    27.8140 ca         1 J2X      -0.107000
      8 C18         24.4620   -31.6430    27.7430 ca         1 J2X      -0.109000
      9 C19         24.2440   -32.7770    26.9740 ca         1 J2X      -0.111000
     10 C20         25.3050   -33.3480    26.2810 ca         1 J2X      -0.109000
     11 C21         26.5700   -32.7850    26.3530 ca         1 J2X      -0.107000
     12 C22         29.8290   -31.4560    25.3420 ca         1 J2X      -0.076000
     13 C23         30.4010   -31.2020    24.0840 cp         1 J2X      -0.042000
     14 C26         31.6320   -33.3720    23.8840 ca         1 J2X      -0.059500
     15 C27         32.7150   -34.1270    23.4620 ca         1 J2X      -0.177000
     16 C28         33.7510   -33.5250    22.7520 ca         1 J2X       0.143100
     17 C29         33.6790   -32.1630    22.4690 ca         1 J2X      -0.177000
     18 C30         32.5920   -31.4220    22.8960 ca         1 J2X      -0.059500
     19 C01         28.1020   -28.3110    23.1960 c          1 J2X       0.604700
     20 C02         26.9020   -27.9600    24.0780 c5         1 J2X      -0.150000
     21 C03         26.8020   -26.4580    24.2780 c3         1 J2X       0.177600
     22 C04         25.6080   -28.5310    23.4380 c3         1 J2X      -0.010100
     23 C05         25.2250   -28.0200    22.0780 ca         1 J2X      -0.119300
     24 C06         25.5870   -28.7030    20.9190 ca         1 J2X      -0.059500
     25 C07         25.2220   -28.2500    19.6620 ca         1 J2X      -0.173500
     26 C08         24.4730   -27.0830    19.5340 ca         1 J2X       0.142100
     27 C09         24.0910   -26.3910    20.6800 ca         1 J2X      -0.173500
     28 C11         28.8070   -29.4400    23.8210 ca         1 J2X      -0.183600
     29 C24         29.8750   -30.1720    23.3150 ca         1 J2X      -0.034000
     30 C25         31.5460   -32.0060    23.6150 cp         1 J2X      -0.074000
     31 O02         24.1410   -26.6780    18.2910 oh         1 J2X      -0.534100
     32 O03         34.8320   -34.2020    22.3210 oh         1 J2X      -0.531100
     33 O04         28.0120   -26.0060    24.8390 oh         1 J2X      -0.661000
     34 H1          24.1420   -26.3170    22.8090 ha         1 J2X       0.110500
     35 H2          27.4690   -28.0650    26.1990 hc         1 J2X       0.069700
     36 H3          26.2570   -29.2400    25.7470 hc         1 J2X       0.069700
     37 H4          28.8480   -31.7210    27.7360 hc         1 J2X       0.056700
     38 H5          28.1370   -30.1240    27.8040 hc         1 J2X       0.056700
     39 H6          25.8930   -30.1940    28.4130 ha         1 J2X       0.111500
     40 H7          23.6430   -31.1880    28.2860 ha         1 J2X       0.112500
     41 H8          23.2550   -33.2140    26.9140 ha         1 J2X       0.113000
     42 H9          25.1460   -34.2360    25.6820 ha         1 J2X       0.112500
     43 H10         27.3880   -33.2370    25.8050 ha         1 J2X       0.111500
     44 H11         30.2520   -32.2410    25.9590 ha         1 J2X       0.113000
     45 H12         30.8330   -33.8710    24.4180 ha         1 J2X       0.116500
     46 H13         32.7480   -35.1880    23.6830 ha         1 J2X       0.121500
     47 H14         34.4820   -31.6840    21.9230 ha         1 J2X       0.121500
     48 H15         32.5720   -30.3610    22.6830 ha         1 J2X       0.116500
     49 H16         26.6050   -25.9740    23.3150 h1         1 J2X       0.030700
     50 H17         25.9430   -26.2440    24.9280 h1         1 J2X       0.030700
     51 H18         24.7970   -28.3260    24.1430 hc         1 J2X       0.053200
     52 H19         25.7080   -29.6190    23.4010 hc         1 J2X       0.053200
     53 H20         26.1610   -29.6190    20.9960 ha         1 J2X       0.110500
     54 H21         25.5130   -28.8020    18.7770 ha         1 J2X       0.120000
     55 H22         23.4970   -25.4870    20.6010 ha         1 J2X       0.120000
     56 H23         30.2720   -29.9510    22.3310 ha         1 J2X       0.132000
     57 H24         23.6180   -25.8700    18.3280 ho         1 J2X       0.463000
     58 H25         34.7690   -35.1310    22.5700 ho         1 J2X       0.465000
     59 H26         27.9560   -25.0530    24.9520 ho         1 J2X       0.446000
     60 O01         28.4040   -27.7590    22.1630 o          1 J2X      -0.501100
@<TRIPOS>BOND
     1     1    23 ar  
     2     1    27 ar  
     3     1    34 1   
     4     2     3 1   
     5     2     4 ar  
     6     2    28 ar  
     7     3    20 1   
     8     3    35 1   
     9     3    36 1   
    10     4     5 1   
    11     4    12 ar  
    12     5     6 1   
    13     5    37 1   
    14     5    38 1   
    15     6     7 ar  
    16     6    11 ar  
    17     7     8 ar  
    18     7    39 1   
    19     8     9 ar  
    20     8    40 1   
    21     9    10 ar  
    22     9    41 1   
    23    10    11 ar  
    24    10    42 1   
    25    11    43 1   
    26    12    13 ar  
    27    12    44 1   
    28    13    29 ar  
    29    13    30 1   
    30    14    15 ar  
    31    14    30 ar  
    32    14    45 1   
    33    15    16 ar  
    34    15    46 1   
    35    16    17 ar  
    36    16    32 1   
    37    17    18 ar  
    38    17    47 1   
    39    18    30 ar  
    40    18    48 1   
    41    19    20 1   
    42    19    28 1   
    43    19    60 2   
    44    20    21 1   
    45    20    22 1   
    46    21    33 1   
    47    21    49 1   
    48    21    50 1   
    49    22    23 1   
    50    22    51 1   
    51    22    52 1   
    52    23    24 ar  
    53    24    25 ar  
    54    24    53 1   
    55    25    26 ar  
    56    25    54 1   
    57    26    27 ar  
    58    26    31 1   
    59    27    55 1   
    60    28    29 ar  
    61    29    56 1   
    62    31    57 1   
    63    32    58 1   
    64    33    59 1   
@<TRIPOS>SUBSTRUCTURE
     1 J2X         1 TEMP              0 ****  ****    0 ROOT
