@<TRIPOS>MOLECULE
J2Y
   44    47     1     0     0
SMALL
No Charge or Current Charge


@<TRIPOS>ATOM
      1 C18         -1.3090     3.0870     0.7190 ca         1 J2Y       0.256900
      2 C16         -1.7960     0.9670    -0.1050 ca         1 J2Y       0.396800
      3 C15          2.1800    -1.2690     0.1550 ca         1 J2Y      -0.220000
      4 C19         -2.2210     3.7070    -0.1750 ca         1 J2Y       0.087100
      5 C20         -2.9430     2.8910    -1.0590 ca         1 J2Y      -0.119000
      6 C21         -2.7270     1.5020    -1.0180 ca         1 J2Y      -0.094000
      7 C23          5.8770    -1.4760    -0.1870 c          1 J2Y       0.610100
      8 C11          1.2600     0.6450    -0.9550 ca         1 J2Y      -0.159000
      9 C12          2.5720     1.0890    -1.1760 ca         1 J2Y       0.369900
     10 C27         -1.7300     5.9750     0.6570 c3         1 J2Y       0.145900
     11 C1          -2.5770    -1.4590     0.1640 ca         1 J2Y       0.345800
     12 C2          -1.9230    -2.6450     0.3510 ca         1 J2Y      -0.091200
     13 C3          -2.6440    -3.8170     0.6120 ca         1 J2Y      -0.086000
     14 C4          -4.0470    -3.6800     0.6740 ca         1 J2Y      -0.148000
     15 C5          -4.6340    -2.4050     0.4820 ca         1 J2Y       0.316900
     16 N6          -3.9100    -1.2830     0.2320 nb         1 J2Y      -0.625000
     17 C7          -1.5740    -0.4710    -0.0490 cc         1 J2Y      -0.285600
     18 C8          -0.3210    -1.0980     0.0220 cd         1 J2Y       0.026700
     19 N9          -0.5490    -2.4790     0.2620 na         1 J2Y      -0.209700
     20 C10          1.0340    -0.5550    -0.2510 ca         1 J2Y       0.038200
     21 N13          3.6620     0.4080    -0.7620 nb         1 J2Y      -0.673000
     22 C14          3.4550    -0.7620    -0.1320 ca         1 J2Y       0.490900
     23 N17         -1.1000     1.7480     0.7570 nb         1 J2Y      -0.644000
     24 N22          4.6030    -1.4180     0.3350 ns         1 J2Y      -0.337900
     25 O24          6.2130    -0.9710    -1.2500 o          1 J2Y      -0.525100
     26 C25          6.8610    -2.2640     0.6720 c3         1 J2Y      -0.187100
     27 O26         -2.4330     5.0730    -0.2160 os         1 J2Y      -0.335100
     28 H35         -0.7240     3.6700     1.4280 h4         1 J2Y       0.021100
     29 H34          2.0950    -2.2000     0.7060 ha         1 J2Y       0.116000
     30 H36         -3.6540     3.3250    -1.7590 ha         1 J2Y       0.132000
     31 H37         -3.2700     0.8410    -1.6870 ha         1 J2Y       0.141000
     32 H32          0.4440     1.2320    -1.3580 ha         1 J2Y       0.136000
     33 H33          2.7580     2.0190    -1.7120 h4         1 J2Y       0.025100
     34 H42         -0.6470     5.9100     0.4960 h1         1 J2Y       0.043033
     35 H43         -2.0410     7.0100     0.4650 h1         1 J2Y       0.043033
     36 H44         -1.9440     5.7460     1.7090 h1         1 J2Y       0.043033
     37 H28         -2.1530    -4.7760     0.7650 ha         1 J2Y       0.120000
     38 H29         -4.6780    -4.5420     0.8740 ha         1 J2Y       0.122000
     39 H30         -5.7150    -2.2810     0.5340 h4         1 J2Y       0.019100
     40 H31          0.1560    -3.2060     0.3170 hn         1 J2Y       0.354000
     41 H38          4.4620    -1.9370     1.1900 hn         1 J2Y       0.148000
     42 H40          7.8640    -2.3080     0.2320 hc         1 J2Y       0.062700
     43 H39          6.8790    -1.8330     1.6790 hc         1 J2Y       0.062700
     44 H41          6.4540    -3.2650     0.8540 hc         1 J2Y       0.062700
@<TRIPOS>BOND
     1     1     4 ar  
     2     1    23 ar  
     3     1    28 1   
     4     2     6 ar  
     5     2    17 1   
     6     2    23 ar  
     7     3    20 ar  
     8     3    22 ar  
     9     3    29 1   
    10     4     5 ar  
    11     4    27 1   
    12     5     6 ar  
    13     5    30 1   
    14     6    31 1   
    15     7    24 1   
    16     7    25 2   
    17     7    26 1   
    18     8     9 ar  
    19     8    20 ar  
    20     8    32 1   
    21     9    21 ar  
    22     9    33 1   
    23    10    27 1   
    24    10    34 1   
    25    10    35 1   
    26    10    36 1   
    27    11    12 ar  
    28    11    16 ar  
    29    11    17 1   
    30    12    13 ar  
    31    12    19 1   
    32    13    14 ar  
    33    13    37 1   
    34    14    15 ar  
    35    14    38 1   
    36    15    16 ar  
    37    15    39 1   
    38    17    18 2   
    39    18    19 1   
    40    18    20 1   
    41    19    40 1   
    42    21    22 ar  
    43    22    24 1   
    44    24    41 1   
    45    26    42 1   
    46    26    43 1   
    47    26    44 1   
@<TRIPOS>SUBSTRUCTURE
     1 J2Y         1 TEMP              0 ****  ****    0 ROOT
