@<TRIPOS>MOLECULE
J2Y
   44    47     1     0     0
SMALL
abcg2


@<TRIPOS>ATOM
      1 C18         -0.9900     3.0680     0.5340 ca         1 J2Y       0.256900
      2 C16         -1.7890     0.9890    -0.0270 ca         1 J2Y       0.396800
      3 C15          2.0770    -1.2200     0.0740 ca         1 J2Y      -0.220000
      4 C19         -2.1180     3.7130     0.0290 ca         1 J2Y       0.087100
      5 C20         -3.1220     2.9180    -0.5220 ca         1 J2Y      -0.119000
      6 C21         -2.9570     1.5500    -0.5520 ca         1 J2Y      -0.094000
      7 C23          5.7680    -1.0420     0.2880 c          1 J2Y       0.610100
      8 C11          1.1720     0.3900    -1.4370 ca         1 J2Y      -0.159000
      9 C12          2.4690     0.7680    -1.7070 ca         1 J2Y       0.369900
     10 C27         -1.3100     5.8680     0.5920 c3         1 J2Y       0.145900
     11 C1          -2.5600    -1.4660     0.1910 ca         1 J2Y       0.345800
     12 C2          -1.9010    -2.7140     0.1750 ca         1 J2Y      -0.091200
     13 C3          -2.6140    -3.8880     0.3770 ca         1 J2Y      -0.086000
     14 C4          -3.9690    -3.7390     0.6000 ca         1 J2Y      -0.148000
     15 C5          -4.5420    -2.4580     0.6160 ca         1 J2Y       0.316900
     16 N6          -3.8690    -1.3390     0.4200 nb         1 J2Y      -0.625000
     17 C7          -1.5710    -0.4580    -0.0470 cc         1 J2Y      -0.285600
     18 C8          -0.3760    -1.1300    -0.2030 cd         1 J2Y       0.026700
     19 N9          -0.5830    -2.4750    -0.0510 na         1 J2Y      -0.209700
     20 C10          0.9660    -0.6380    -0.5130 ca         1 J2Y       0.038200
     21 N13          3.5450     0.2160    -1.1490 nb         1 J2Y      -0.673000
     22 C14          3.3510    -0.7570    -0.2790 ca         1 J2Y       0.490900
     23 N17         -0.8430     1.7510     0.5090 nb         1 J2Y      -0.644000
     24 N22          4.4390    -1.3750     0.3250 ns         1 J2Y      -0.337900
     25 O24          6.2230    -0.1080    -0.3350 o          1 J2Y      -0.525100
     26 C25          6.6180    -1.9570     1.1360 c3         1 J2Y      -0.187100
     27 O26         -2.3160     5.0410     0.0360 os         1 J2Y      -0.335100
     28 H35         -0.1760     3.6240     0.9840 h4         1 J2Y       0.021100
     29 H34          1.9710    -2.0060     0.8110 ha         1 J2Y       0.116000
     30 H36         -4.0160     3.3770    -0.9270 ha         1 J2Y       0.132000
     31 H37         -3.7230     0.9220    -0.9840 ha         1 J2Y       0.141000
     32 H32          0.3490     0.8660    -1.9480 ha         1 J2Y       0.136000
     33 H33          2.6600     1.5590    -2.4240 h4         1 J2Y       0.025100
     34 H42         -0.3630     5.7760     0.0540 h1         1 J2Y       0.043033
     35 H43         -1.6670     6.8910     0.4990 h1         1 J2Y       0.043033
     36 H44         -1.1410     5.6480     1.6490 h1         1 J2Y       0.043033
     37 H28         -2.1400    -4.8610     0.3630 ha         1 J2Y       0.120000
     38 H29         -4.5970    -4.6030     0.7680 ha         1 J2Y       0.122000
     39 H30         -5.6060    -2.3570     0.7980 h4         1 J2Y       0.019100
     40 H31          0.1150    -3.1830    -0.2180 hn         1 J2Y       0.354000
     41 H38          4.2050    -2.1640     0.9090 hn         1 J2Y       0.148000
     42 H40          7.6710    -1.7880     0.9280 hc         1 J2Y       0.062700
     43 H39          6.4380    -1.7580     2.1940 hc         1 J2Y       0.062700
     44 H41          6.3860    -3.0070     0.9570 hc         1 J2Y       0.062700
@<TRIPOS>BOND
     1     1     4 ar  
     2     1    23 ar  
     3     1    28 1   
     4     2     6 ar  
     5     2    17 1   
     6     2    23 ar  
     7     3    20 ar  
     8     3    22 ar  
     9     3    29 1   
    10     4     5 ar  
    11     4    27 1   
    12     5     6 ar  
    13     5    30 1   
    14     6    31 1   
    15     7    24 1   
    16     7    25 2   
    17     7    26 1   
    18     8     9 ar  
    19     8    20 ar  
    20     8    32 1   
    21     9    21 ar  
    22     9    33 1   
    23    10    27 1   
    24    10    34 1   
    25    10    35 1   
    26    10    36 1   
    27    11    12 ar  
    28    11    16 ar  
    29    11    17 1   
    30    12    13 ar  
    31    12    19 1   
    32    13    14 ar  
    33    13    37 1   
    34    14    15 ar  
    35    14    38 1   
    36    15    16 ar  
    37    15    39 1   
    38    17    18 2   
    39    18    19 1   
    40    18    20 1   
    41    19    40 1   
    42    21    22 ar  
    43    22    24 1   
    44    24    41 1   
    45    26    42 1   
    46    26    43 1   
    47    26    44 1   
@<TRIPOS>SUBSTRUCTURE
     1 J2Y         1 TEMP              0 ****  ****    0 ROOT
