@<TRIPOS>MOLECULE
J2Z
   43    46     1     0     0
SMALL
bcc


@<TRIPOS>ATOM
      1 O1          -4.4660    -1.4720    -0.4480 o          1 J2Z      -0.507100
      2 C7          -3.7100    -0.6370    -0.0170 c          1 J2Z       0.546100
      3 C8          -4.0860     0.8430     0.1840 c5         1 J2Z       0.044100
      4 O2          -4.8450     1.3210    -0.8980 oh         1 J2Z      -0.583800
      5 C9          -2.7360     1.5700     0.2750 c5         1 J2Z      -0.065400
      6 C10         -1.7120     0.5280    -0.1840 c5         1 J2Z      -0.060700
      7 C5          -2.2580    -0.8080     0.3450 c5         1 J2Z      -0.150000
      8 C6          -2.2110    -0.9250     1.8810 c3         1 J2Z      -0.080100
      9 C12         -0.2440     0.7060     0.1510 c6         1 J2Z      -0.045700
     10 C2           0.5380    -0.4440    -0.5070 c6         1 J2Z      -0.004400
     11 C3          -0.0050    -1.8180    -0.0860 c6         1 J2Z      -0.071400
     12 C4          -1.5150    -1.9600    -0.3100 c6         1 J2Z      -0.052400
     13 C14          0.3280     2.0350    -0.3120 c6         1 J2Z      -0.069400
     14 C15          1.7530     2.1940     0.1940 c6         1 J2Z      -0.033100
     15 C16          2.5960     0.9550     0.0230 ca         1 J2Z      -0.034300
     16 C21          2.0320    -0.2910    -0.2830 ca         1 J2Z      -0.103300
     17 C17          3.9720     1.0760     0.1990 ca         1 J2Z      -0.167000
     18 C18          4.8150    -0.0190     0.0710 ca         1 J2Z       0.139100
     19 O3           6.1390     0.1730     0.2590 oh         1 J2Z      -0.496100
     20 C19          4.2690    -1.2580    -0.2460 ca         1 J2Z      -0.224000
     21 C20          2.9000    -1.3750    -0.4180 ca         1 J2Z      -0.086000
     22 H8          -4.6460     0.9270     1.1270 h1         1 J2Z       0.052700
     23 HO2         -5.6460     0.7880    -0.9630 ho         1 J2Z       0.420000
     24 H19         -2.7360     2.4610    -0.3530 hc         1 J2Z       0.061700
     25 H29         -2.5380     1.9000     1.2970 hc         1 J2Z       0.061700
     26 H10         -1.7860     0.4780    -1.2820 hc         1 J2Z       0.058700
     27 H16         -2.7060    -1.8440     2.1960 hc         1 J2Z       0.041700
     28 H26         -1.1850    -0.9660     2.2430 hc         1 J2Z       0.041700
     29 H36         -2.6990    -0.0950     2.3920 hc         1 J2Z       0.041700
     30 H12         -0.1210     0.6450     1.2420 hc         1 J2Z       0.055700
     31 H2           0.3590    -0.3480    -1.5890 hc         1 J2Z       0.054700
     32 H13          0.4910    -2.6080    -0.6520 hc         1 J2Z       0.043700
     33 H23          0.2450    -2.0000     0.9630 hc         1 J2Z       0.043700
     34 H14         -1.8560    -2.9230     0.0810 hc         1 J2Z       0.052700
     35 H24         -1.7200    -1.9660    -1.3850 hc         1 J2Z       0.052700
     36 H114         0.2990     2.0810    -1.4060 hc         1 J2Z       0.045700
     37 H214        -0.2760     2.8690     0.0530 hc         1 J2Z       0.045700
     38 H115         2.2410     3.0370    -0.3000 hc         1 J2Z       0.051200
     39 H215         1.7270     2.4500     1.2580 hc         1 J2Z       0.051200
     40 H17          4.3950     2.0450     0.4400 ha         1 J2Z       0.144000
     41 HO3          6.6190    -0.6500     0.1170 ho         1 J2Z       0.425000
     42 H19A         4.9040    -2.1300    -0.3590 ha         1 J2Z       0.131000
     43 H20          2.5100    -2.3510    -0.6740 ha         1 J2Z       0.128000
@<TRIPOS>BOND
     1     1     2 2   
     2     2     3 1   
     3     2     7 1   
     4     3     4 1   
     5     3     5 1   
     6     3    22 1   
     7     4    23 1   
     8     5     6 1   
     9     5    24 1   
    10     5    25 1   
    11     6     7 1   
    12     6     9 1   
    13     6    26 1   
    14     7     8 1   
    15     7    12 1   
    16     8    27 1   
    17     8    28 1   
    18     8    29 1   
    19     9    10 1   
    20     9    13 1   
    21     9    30 1   
    22    10    11 1   
    23    10    16 1   
    24    10    31 1   
    25    11    12 1   
    26    11    32 1   
    27    11    33 1   
    28    12    34 1   
    29    12    35 1   
    30    13    14 1   
    31    13    36 1   
    32    13    37 1   
    33    14    15 1   
    34    14    38 1   
    35    14    39 1   
    36    15    16 ar  
    37    15    17 ar  
    38    16    21 ar  
    39    17    18 ar  
    40    17    40 1   
    41    18    19 1   
    42    18    20 ar  
    43    19    41 1   
    44    20    21 ar  
    45    20    42 1   
    46    21    43 1   
@<TRIPOS>SUBSTRUCTURE
     1 J2Z         1 TEMP              0 ****  ****    0 ROOT
