@<TRIPOS>MOLECULE
J2Z
   43    46     1     0     0
SMALL
No Charge or Current Charge


@<TRIPOS>ATOM
      1 O1          -4.5300    -1.5220    -0.5020 o          1 J2Z      -0.507100
      2 C7          -3.8070    -0.6540    -0.0250 c          1 J2Z       0.546100
      3 C8          -4.1390     0.8740     0.1250 c5         1 J2Z       0.067300
      4 O2          -4.7760     1.3890    -1.0640 oh         1 J2Z      -0.646000
      5 C9          -2.7710     1.5890     0.4010 c5         1 J2Z      -0.065400
      6 C10         -1.7500     0.5430    -0.1390 c5         1 J2Z      -0.060700
      7 C5          -2.3290    -0.8020     0.3980 c5         1 J2Z      -0.150000
      8 C6          -2.2900    -0.9900     1.9550 c3         1 J2Z      -0.080100
      9 C12         -0.2380     0.7130     0.1740 c6         1 J2Z      -0.045700
     10 C2           0.5610    -0.4600    -0.4880 c6         1 J2Z      -0.004400
     11 C3          -0.0150    -1.8510    -0.0440 c6         1 J2Z      -0.071400
     12 C4          -1.5540    -1.9740    -0.2690 c6         1 J2Z      -0.052400
     13 C14          0.3250     2.0620    -0.3230 c6         1 J2Z      -0.069400
     14 C15          1.7820     2.2350     0.1540 c6         1 J2Z      -0.033100
     15 C16          2.6490     0.9800    -0.0050 ca         1 J2Z      -0.034300
     16 C21          2.0910    -0.2970    -0.2850 ca         1 J2Z      -0.103300
     17 C17          4.0420     1.1180     0.1560 ca         1 J2Z      -0.149000
     18 C18          4.8890     0.0120     0.0240 ca         1 J2Z       0.139100
     19 O3           6.2340     0.1650     0.1810 oh         1 J2Z      -0.535100
     20 C19          4.3540    -1.2450    -0.2750 ca         1 J2Z      -0.206000
     21 C20          2.9660    -1.3990    -0.4350 ca         1 J2Z      -0.068000
     22 H8          -4.8040     0.9880     0.9910 h1         1 J2Z       0.052700
     23 HO2         -5.5470     0.8070    -1.2600 ho         1 J2Z       0.459000
     24 H19         -2.6940     2.5540    -0.1140 hc         1 J2Z       0.061700
     25 H29         -2.6250     1.7920     1.4680 hc         1 J2Z       0.061700
     26 H10         -1.8020     0.5560    -1.2360 hc         1 J2Z       0.058700
     27 H16         -2.7070    -1.9640     2.2370 hc         1 J2Z       0.041700
     28 H26         -1.2740    -0.9480     2.3610 hc         1 J2Z       0.041700
     29 H36         -2.8800    -0.2360     2.4880 hc         1 J2Z       0.041700
     30 H12         -0.0960     0.6730     1.2630 hc         1 J2Z       0.055700
     31 H2           0.3970    -0.3930    -1.5730 hc         1 J2Z       0.054700
     32 H13          0.4580    -2.6590    -0.6140 hc         1 J2Z       0.043700
     33 H23          0.2340    -2.0380     1.0090 hc         1 J2Z       0.043700
     34 H14         -1.9150    -2.9410     0.1090 hc         1 J2Z       0.052700
     35 H24         -1.7550    -1.9780    -1.3500 hc         1 J2Z       0.052700
     36 H114         0.2830     2.1070    -1.4200 hc         1 J2Z       0.045700
     37 H214        -0.2770     2.9010     0.0510 hc         1 J2Z       0.045700
     38 H115         2.2390     3.0780    -0.3830 hc         1 J2Z       0.051200
     39 H215         1.7770     2.5210     1.2150 hc         1 J2Z       0.051200
     40 H17          4.4680     2.0920     0.3830 ha         1 J2Z       0.126000
     41 HO3          6.6590    -0.7100     0.0510 ho         1 J2Z       0.464000
     42 H19A         5.0040    -2.1080    -0.3910 ha         1 J2Z       0.113000
     43 H20          2.5900    -2.3850    -0.6840 ha         1 J2Z       0.110000
@<TRIPOS>BOND
     1     1     2 2   
     2     2     3 1   
     3     2     7 1   
     4     3     4 1   
     5     3     5 1   
     6     3    22 1   
     7     4    23 1   
     8     5     6 1   
     9     5    24 1   
    10     5    25 1   
    11     6     7 1   
    12     6     9 1   
    13     6    26 1   
    14     7     8 1   
    15     7    12 1   
    16     8    27 1   
    17     8    28 1   
    18     8    29 1   
    19     9    10 1   
    20     9    13 1   
    21     9    30 1   
    22    10    11 1   
    23    10    16 1   
    24    10    31 1   
    25    11    12 1   
    26    11    32 1   
    27    11    33 1   
    28    12    34 1   
    29    12    35 1   
    30    13    14 1   
    31    13    36 1   
    32    13    37 1   
    33    14    15 1   
    34    14    38 1   
    35    14    39 1   
    36    15    16 ar  
    37    15    17 ar  
    38    16    21 ar  
    39    17    18 ar  
    40    17    40 1   
    41    18    19 1   
    42    18    20 ar  
    43    19    41 1   
    44    20    21 ar  
    45    20    42 1   
    46    21    43 1   
@<TRIPOS>SUBSTRUCTURE
     1 J2Z         1 TEMP              0 ****  ****    0 ROOT
