@<TRIPOS>MOLECULE
J30
   47    49     1     0     0
SMALL
No Charge or Current Charge


@<TRIPOS>ATOM
      1 SD           7.8920     0.8980    -1.6140 sh         1 J30      -0.447800
      2 CE           6.1220     1.1890    -1.1550 c3         1 J30       0.079600
      3 CH           3.9110     0.1540    -0.3350 c3         1 J30      -0.154400
      4 CZ           5.3910    -0.0950    -0.7190 c3         1 J30      -0.057400
      5 C12          3.1180    -1.0890     0.1210 c          1 J30       0.608100
      6 O13          3.6330    -2.2010     0.1090 o          1 J30      -0.604100
      7 N14          1.8040    -0.9110     0.6120 n          1 J30      -0.416800
      8 C15          1.0130    -2.1110     1.0280 c6         1 J30       0.098500
      9 C16         -0.2860    -1.8040     1.8210 c6         1 J30       0.145300
     10 N17         -1.1190    -0.7700     1.1590 n3         1 J30      -0.720600
     11 C18         -0.3270     0.4800     1.0190 c6         1 J30       0.145300
     12 C19          0.9770     0.2700     0.2010 c6         1 J30       0.098500
     13 C40         -3.3600     0.4000     1.1250 ca         1 J30      -0.074300
     14 C41         -4.0130     0.0570    -0.0910 ca         1 J30      -0.019000
     15 C42         -4.8810     0.9950    -0.7060 ca         1 J30      -0.040000
     16 C43         -5.0930     2.2550    -0.1190 ca         1 J30      -0.094000
     17 C44         -4.4460     2.5920     1.0780 ca         1 J30      -0.111000
     18 C45         -3.5870     1.6700     1.6950 ca         1 J30      -0.109000
     19 C46         -3.8200    -1.2000    -0.7110 ca         1 J30      -0.087000
     20 C47         -4.4790    -1.5140    -1.9120 ca         1 J30      -0.114000
     21 C48         -5.3380    -0.5800    -2.5100 ca         1 J30      -0.104000
     22 C49         -5.5380     0.6720    -1.9090 ca         1 J30      -0.104000
     23 HSD          8.1800     2.1870    -1.9230 hs         1 J30       0.207800
     24 HE           6.0940     1.9220    -0.3380 h1         1 J30       0.053700
     25 HEA          5.6090     1.6260    -2.0220 h1         1 J30       0.053700
     26 HH           3.8200     0.9170     0.4470 hc         1 J30       0.056200
     27 HHA          3.3610     0.6220    -1.1600 hc         1 J30       0.056200
     28 HZ           5.4390    -0.8260    -1.5350 hc         1 J30       0.072700
     29 HZA          5.9210    -0.5330     0.1370 hc         1 J30       0.072700
     30 H15          0.7410    -2.6720     0.1230 h1         1 J30       0.060450
     31 H15A         1.6410    -2.7730     1.6400 h1         1 J30       0.060450
     32 H16         -0.8530    -2.7390     1.9340 h1         1 J30       0.042450
     33 H16A        -0.0080    -1.4730     2.8330 h1         1 J30       0.042450
     34 H17         -2.9340    -1.5270     1.9660 h1         1 J30       0.040700
     35 H17A        -2.2370    -0.1920     2.8680 h1         1 J30       0.040700
     36 H18         -0.9180     1.2630     0.5220 h1         1 J30       0.042450
     37 H18A        -0.0580     0.8670     2.0130 h1         1 J30       0.042450
     38 H19          1.5650     1.1940     0.2780 h1         1 J30       0.060450
     39 H19A         0.7050     0.1460    -0.8560 h1         1 J30       0.060450
     40 H43         -5.7580     2.9760    -0.5910 ha         1 J30       0.114000
     41 H44         -4.6100     3.5680     1.5290 ha         1 J30       0.114000
     42 H45         -3.0920     1.9460     2.6230 ha         1 J30       0.109000
     43 H46         -3.1570    -1.9430    -0.2770 ha         1 J30       0.129000
     44 H47         -4.3220    -2.4830    -2.3790 ha         1 J30       0.112000
     45 H48         -5.8470    -0.8250    -3.4400 ha         1 J30       0.113000
     46 H49         -6.2040     1.3920    -2.3790 ha         1 J30       0.112000
     47 C17         -2.4160    -0.5650     1.8500 c3         1 J30       0.214100
@<TRIPOS>BOND
     1     1     2 1   
     2     1    23 1   
     3     2     4 1   
     4     2    24 1   
     5     2    25 1   
     6     3     4 1   
     7     3     5 1   
     8     3    26 1   
     9     3    27 1   
    10     4    28 1   
    11     4    29 1   
    12     5     6 2   
    13     5     7 1   
    14     7     8 1   
    15     7    12 1   
    16     8     9 1   
    17     8    30 1   
    18     8    31 1   
    19     9    10 1   
    20     9    32 1   
    21     9    33 1   
    22    10    11 1   
    23    10    47 1   
    24    11    12 1   
    25    11    36 1   
    26    11    37 1   
    27    12    38 1   
    28    12    39 1   
    29    13    14 ar  
    30    13    18 ar  
    31    13    47 1   
    32    14    15 ar  
    33    14    19 ar  
    34    15    16 ar  
    35    15    22 ar  
    36    16    17 ar  
    37    16    40 1   
    38    17    18 ar  
    39    17    41 1   
    40    18    42 1   
    41    19    20 ar  
    42    19    43 1   
    43    20    21 ar  
    44    20    44 1   
    45    21    22 ar  
    46    21    45 1   
    47    22    46 1   
    48    34    47 1   
    49    35    47 1   
@<TRIPOS>SUBSTRUCTURE
     1 J30         1 TEMP              0 ****  ****    0 ROOT
