@<TRIPOS>MOLECULE
J30
   47    49     1     0     0
SMALL
bcc


@<TRIPOS>ATOM
      1 SD           7.6580     1.2080    -0.5720 sh         1 J30      -0.399900
      2 CE           5.8510     1.3120    -0.8000 c3         1 J30       0.031700
      3 CH           3.6960     0.1140    -0.4010 c3         1 J30      -0.154400
      4 CZ           5.2090     0.0480    -0.2490 c3         1 J30      -0.057400
      5 C12          2.9950    -1.1160     0.1470 c          1 J30       0.675100
      6 O13          3.6340    -2.0260     0.6620 o          1 J30      -0.604100
      7 N14          1.6490    -1.1600     0.0380 n          1 J30      -0.483800
      8 C15          0.8840    -2.2800     0.5510 c6         1 J30       0.098500
      9 C16         -0.1640    -1.7960     1.5370 c6         1 J30       0.145300
     10 N17         -1.0190    -0.7970     0.9290 n3         1 J30      -0.720600
     11 C18         -0.2380     0.3300     0.4630 c6         1 J30       0.145300
     12 C19          0.8080    -0.1290    -0.5390 c6         1 J30       0.098500
     13 C40         -3.0880     0.5250     1.1770 ca         1 J30      -0.074300
     14 C41         -3.8610     0.1270     0.0470 ca         1 J30      -0.019000
     15 C42         -4.7920     1.0430    -0.5130 ca         1 J30      -0.040000
     16 C43         -4.9320     2.3320     0.0550 ca         1 J30      -0.112000
     17 C44         -4.1830     2.6930     1.1380 ca         1 J30      -0.129000
     18 C45         -3.2630     1.7830     1.6950 ca         1 J30      -0.127000
     19 C46         -3.7490    -1.1580    -0.5400 ca         1 J30      -0.105000
     20 C47         -4.5220    -1.5120    -1.6130 ca         1 J30      -0.132000
     21 C48         -5.4410    -0.5990    -2.1670 ca         1 J30      -0.122000
     22 C49         -5.5710     0.6500    -1.6270 ca         1 J30      -0.122000
     23 HSD          7.9790     2.3900    -1.1080 hs         1 J30       0.207800
     24 HE           5.4720     2.1930    -0.2800 h1         1 J30       0.053700
     25 HEA          5.6290     1.4250    -1.8620 h1         1 J30       0.053700
     26 HH           3.3170     1.0050     0.1080 hc         1 J30       0.056200
     27 HHA          3.4360     0.2410    -1.4570 hc         1 J30       0.056200
     28 HZ           5.6040    -0.8230    -0.7740 hc         1 J30       0.072700
     29 HZA          5.4740    -0.0670     0.8040 hc         1 J30       0.072700
     30 H15          0.3920    -2.7920    -0.2830 h1         1 J30       0.060450
     31 H15A         1.5490    -2.9900     1.0340 h1         1 J30       0.060450
     32 H16         -0.7730    -2.6500     1.8450 h1         1 J30       0.042450
     33 H16A         0.3390    -1.4120     2.4420 h1         1 J30       0.042450
     34 H17         -2.6100    -1.3280     2.1310 h1         1 J30       0.040700
     35 H17A        -1.7210     0.0590     2.7410 h1         1 J30       0.040700
     36 H18         -0.8930     1.0490    -0.0320 h1         1 J30       0.042450
     37 H18A         0.2590     0.8620     1.2940 h1         1 J30       0.042450
     38 H19          1.3950     0.7260    -0.8610 h1         1 J30       0.060450
     39 H19A         0.3050    -0.5320    -1.4240 h1         1 J30       0.060450
     40 H43         -5.6410     3.0240    -0.3830 ha         1 J30       0.132000
     41 H44         -4.2890     3.6790     1.5720 ha         1 J30       0.132000
     42 H45         -2.6780     2.0880     2.5550 ha         1 J30       0.127000
     43 H46         -3.0310    -1.8610    -0.1420 ha         1 J30       0.147000
     44 H47         -4.4240    -2.5010    -2.0430 ha         1 J30       0.130000
     45 H48         -6.0420    -0.8900    -3.0190 ha         1 J30       0.131000
     46 H49         -6.2760     1.3580    -2.0460 ha         1 J30       0.130000
     47 C17         -2.0980    -0.4120     1.8180 c3         1 J30       0.214100
@<TRIPOS>BOND
     1     1     2 1   
     2     1    23 1   
     3     2     4 1   
     4     2    24 1   
     5     2    25 1   
     6     3     4 1   
     7     3     5 1   
     8     3    26 1   
     9     3    27 1   
    10     4    28 1   
    11     4    29 1   
    12     5     6 2   
    13     5     7 1   
    14     7     8 1   
    15     7    12 1   
    16     8     9 1   
    17     8    30 1   
    18     8    31 1   
    19     9    10 1   
    20     9    32 1   
    21     9    33 1   
    22    10    11 1   
    23    10    47 1   
    24    11    12 1   
    25    11    36 1   
    26    11    37 1   
    27    12    38 1   
    28    12    39 1   
    29    13    14 ar  
    30    13    18 ar  
    31    13    47 1   
    32    14    15 ar  
    33    14    19 ar  
    34    15    16 ar  
    35    15    22 ar  
    36    16    17 ar  
    37    16    40 1   
    38    17    18 ar  
    39    17    41 1   
    40    18    42 1   
    41    19    20 ar  
    42    19    43 1   
    43    20    21 ar  
    44    20    44 1   
    45    21    22 ar  
    46    21    45 1   
    47    22    46 1   
    48    34    47 1   
    49    35    47 1   
@<TRIPOS>SUBSTRUCTURE
     1 J30         1 TEMP              0 ****  ****    0 ROOT
