@<TRIPOS>MOLECULE
J31
  184   186     1     0     0
SMALL
No Charge or Current Charge


@<TRIPOS>ATOM
      1 O23        -30.9110   -12.4800    -6.1410 o          1 J31      -0.680100
      2 C21        -30.3750   -11.4980    -6.6340 c          1 J31       0.621100
      3 N3         -29.4600   -11.6820    -7.6500 ns         1 J31      -0.494900
      4 C20        -29.1660   -10.7310    -8.7410 c3         1 J31       0.053000
      5 C19        -27.7240   -10.1620    -8.7430 c3         1 J31       0.125600
      6 O8         -27.5670    -9.1860    -7.6930 os         1 J31      -0.287100
      7 C18        -27.2230    -9.4750    -6.3820 ca         1 J31       0.213100
      8 C17        -26.8840   -10.7870    -5.9730 ca         1 J31      -0.210000
      9 C16        -26.5660   -11.0610    -4.6340 ca         1 J31      -0.066000
     10 C15        -26.5800   -10.0280    -3.6900 ca         1 J31      -0.188000
     11 C14        -26.9060    -8.7200    -4.0800 ca         1 J31      -0.065000
     12 C13        -27.2240    -8.4240    -5.4290 ca         1 J31      -0.184600
     13 C          -27.5410    -7.0020    -5.8380 c          1 J31       0.607700
     14 N          -28.0050    -6.1820    -4.8310 ns         1 J31      -0.515900
     15 C1         -28.3360    -4.7700    -4.9920 c3         1 J31       0.119000
     16 C2         -29.6820    -4.5590    -5.7060 c3         1 J31      -0.107400
     17 C3         -30.1700    -3.0950    -5.6250 c3         1 J31      -0.059400
     18 C4         -31.3890    -2.7440    -6.5160 c3         1 J31      -0.082400
     19 C5         -32.6860    -3.5730    -6.2520 c3         1 J31       0.016700
     20 N1         -32.6160    -4.9480    -6.8110 ns         1 J31      -0.515900
     21 C7         -32.5610    -5.2640    -8.1450 c          1 J31       0.648100
     22 O7         -32.5820    -4.4420    -9.0460 o          1 J31      -0.657100
     23 N2         -32.4960    -6.6160    -8.3550 ns         1 J31      -0.498900
     24 C8         -32.4270    -7.2690    -9.6860 c3         1 J31      -0.020300
     25 C12        -33.0610    -8.6990    -9.6290 c          1 J31       0.719000
     26 O6         -32.6210    -9.5050    -8.8210 o          1 J31      -0.765000
     27 O5         -34.0490    -8.9230   -10.3180 o          1 J31      -0.765000
     28 C9         -30.9770    -7.2650   -10.2450 c3         1 J31      -0.067400
     29 C10        -30.8560    -7.8510   -11.6760 c3         1 J31      -0.192400
     30 C11        -29.4070    -7.7460   -12.1880 c          1 J31       0.702000
     31 O4         -29.0720    -6.7270   -12.7740 o          1 J31      -0.766000
     32 O3         -28.6470    -8.6750   -11.9660 o          1 J31      -0.766000
     33 C6         -34.0230    -2.8540    -6.6940 c          1 J31       0.732000
     34 O2         -33.9740    -1.8330    -7.3710 o          1 J31      -0.738500
     35 O1         -35.0820    -3.3120    -6.2800 o          1 J31      -0.738500
     36 O          -27.3400    -6.5610    -6.9610 o          1 J31      -0.526100
     37 C22        -30.6570   -10.0890    -6.1110 c3         1 J31      -0.186400
     38 C23        -30.3150    -9.9900    -4.6200 c3         1 J31       0.179600
     39 O9         -30.5740    -8.6430    -4.2010 os         1 J31      -0.439000
     40 C24        -30.4390    -8.4460    -2.7780 c3         1 J31       0.165600
     41 C25        -30.8710    -7.0030    -2.4260 c3         1 J31       0.140600
     42 O10        -29.7040    -6.2150    -2.0920 os         1 J31      -0.486000
     43 C26        -30.0150    -4.8650    -1.6870 c3         1 J31       0.154600
     44 C27        -28.7380    -4.1960    -1.1340 c3         1 J31       0.159600
     45 O11        -29.0560    -2.8250    -0.8320 os         1 J31      -0.446000
     46 C28        -27.9580    -2.0530    -0.3120 c3         1 J31       0.167600
     47 C29        -28.4700    -0.6250    -0.0240 c3         1 J31       0.152600
     48 O12        -27.3880     0.1450     0.5380 os         1 J31      -0.475000
     49 C30        -27.7270     1.5110     0.8500 c3         1 J31       0.162600
     50 C31        -26.4850     2.1940     1.4630 c3         1 J31       0.159600
     51 O13        -26.8150     3.5690     1.7410 os         1 J31      -0.464000
     52 C32        -25.7460     4.3280     2.3400 c3         1 J31       0.165600
     53 C33        -26.2370     5.7770     2.5520 c3         1 J31       0.155600
     54 O14        -25.1780     6.5260     3.1820 os         1 J31      -0.467000
     55 C34        -25.4900     7.9110     3.4260 c3         1 J31       0.160600
     56 C35        -24.2790     8.5690     4.1230 c3         1 J31       0.162600
     57 O15        -24.5860     9.9590     4.3480 os         1 J31      -0.469000
     58 C36        -23.5490    10.6970     5.0220 c3         1 J31       0.164600
     59 C37        -24.0170    12.1600     5.1790 c3         1 J31       0.156600
     60 O16        -23.0030    12.8860     5.9020 os         1 J31      -0.466000
     61 C38        -23.3070    14.2780     6.1200 c3         1 J31       0.160600
     62 C39        -22.1520    14.9070     6.9290 c3         1 J31       0.160600
     63 O17        -22.4580    16.2990     7.1470 os         1 J31      -0.466000
     64 C40        -21.4700    17.0130     7.9150 c3         1 J31       0.161600
     65 C41        -21.9320    18.4790     8.0580 c3         1 J31       0.157600
     66 O18        -20.9620    19.1840     8.8570 os         1 J31      -0.465000
     67 C42        -21.2630    20.5770     9.0710 c3         1 J31       0.159600
     68 C43        -20.1510    21.1820     9.9550 c3         1 J31       0.161600
     69 O19        -20.4440    22.5770    10.1680 os         1 J31      -0.466000
     70 C44        -19.4890    23.2640    10.9980 c3         1 J31       0.161600
     71 C45        -19.9250    24.7400    11.1290 c3         1 J31       0.156600
     72 O20        -18.9780    25.4150    11.9800 os         1 J31      -0.460000
     73 C46        -19.2510    26.8110    12.1910 c3         1 J31       0.136600
     74 C47        -18.1620    27.3680    13.1340 c3         1 J31       0.101000
     75 N4         -18.2870    28.8120    13.3830 ns         1 J31      -0.509900
     76 C48        -19.2770    29.3960    14.1410 c          1 J31       0.598100
     77 O22        -20.1470    28.7410    14.6960 o          1 J31      -0.596100
     78 C49        -19.1770    30.9190    14.2770 c3         1 J31      -0.158400
     79 C50        -20.2570    31.6420    13.4390 c3         1 J31      -0.068400
     80 C51        -20.1940    33.1790    13.5780 c3         1 J31      -0.077400
     81 C52        -21.2600    33.9120    12.7300 c3         1 J31      -0.059400
     82 C53        -21.2020    35.4610    12.8350 c5         1 J31       0.073300
     83 C56        -22.1140    36.2620    11.8340 c5         1 J31       0.096700
     84 C55        -22.3300    37.7150    12.4290 c5         1 J31       0.102700
     85 C54        -21.6800    37.7740    13.8530 c5         1 J31       0.028600
     86 S          -21.6950    36.0470    14.5200 ss         1 J31      -0.408000
     87 N6         -23.4640    35.6900    11.9120 ns         1 J31      -0.511900
     88 C57        -24.3770    36.5580    12.4050 c          1 J31       0.613000
     89 O21        -25.5580    36.3200    12.5630 o          1 J31      -0.572000
     90 N5         -23.7740    37.7380    12.6750 ns         1 J31      -0.521900
     91 H31        -29.2480   -12.6560    -7.8360 hn         1 J31       0.281500
     92 H29        -29.3110   -11.2640    -9.6900 h1         1 J31       0.104700
     93 H30        -29.8900    -9.9070    -8.7440 h1         1 J31       0.104700
     94 H27        -26.9740   -10.9610    -8.6940 h1         1 J31       0.082700
     95 H28        -27.5770    -9.6600    -9.7080 h1         1 J31       0.082700
     96 H26        -26.8670   -11.6110    -6.6770 ha         1 J31       0.112000
     97 H25        -26.3110   -12.0740    -4.3290 ha         1 J31       0.087000
     98 H24        -26.3310   -10.2390    -2.6520 ha         1 J31       0.090000
     99 H23        -26.8850    -7.9380    -3.3240 ha         1 J31       0.100000
    100 H5         -28.1880    -6.6160    -3.9330 hn         1 J31       0.301500
    101 H6         -28.3800    -4.3170    -3.9960 h1         1 J31       0.020700
    102 H7         -27.5330    -4.2710    -5.5510 h1         1 J31       0.020700
    103 H8         -29.5890    -4.8650    -6.7550 hc         1 J31       0.080700
    104 H9         -30.4280    -5.2130    -5.2400 hc         1 J31       0.080700
    105 H10        -30.4120    -2.8600    -4.5810 hc         1 J31      -0.005800
    106 H11        -29.3420    -2.4330    -5.9070 hc         1 J31      -0.005800
    107 H12        -31.6090    -1.6860    -6.3320 hc         1 J31       0.060200
    108 H13        -31.1030    -2.8110    -7.5720 hc         1 J31       0.060200
    109 H          -32.7630    -3.6930    -5.1620 h1         1 J31      -0.016300
    110 H15        -32.6190    -5.7210    -6.1610 hn         1 J31       0.272500
    111 H16        -32.4970    -7.2110    -7.5370 hn         1 J31       0.296500
    112 H1         -33.0510    -6.6820   -10.3730 h1         1 J31       0.063700
    113 H17        -30.6060    -6.2330   -10.2580 hc         1 J31       0.028200
    114 H18        -30.3220    -7.8210    -9.5650 hc         1 J31       0.028200
    115 H19        -31.1530    -8.9040   -11.6020 hc         1 J31       0.023200
    116 H20        -31.5250    -7.2470   -12.3020 hc         1 J31       0.023200
    117 H32        -30.1060    -9.3260    -6.6650 hc         1 J31       0.121700
    118 H33        -31.7290    -9.9010    -6.2280 hc         1 J31       0.121700
    119 H34        -30.9390   -10.6980    -4.0560 h1         1 J31       0.016700
    120 H35        -29.2630   -10.2540    -4.4560 h1         1 J31       0.016700
    121 H36        -31.0910    -9.1500    -2.2360 h1         1 J31       0.012200
    122 H37        -29.4010    -8.6250    -2.4540 h1         1 J31       0.012200
    123 H38        -31.4190    -6.5600    -3.2710 h1         1 J31       0.061200
    124 H39        -31.5570    -7.0470    -1.5670 h1         1 J31       0.061200
    125 H40        -30.3940    -4.2850    -2.5380 h1         1 J31       0.056700
    126 H41        -30.7800    -4.8600    -0.8990 h1         1 J31       0.056700
    127 H42        -28.4120    -4.7250    -0.2290 h1         1 J31       0.021700
    128 H43        -27.9320    -4.2510    -1.8770 h1         1 J31       0.021700
    129 H44        -27.5780    -2.5000     0.6160 h1         1 J31       0.022700
    130 H45        -27.1380    -2.0080    -1.0420 h1         1 J31       0.022700
    131 H46        -28.8250    -0.1720    -0.9590 h1         1 J31       0.046700
    132 H47        -29.3130    -0.6790     0.6780 h1         1 J31       0.046700
    133 H48        -28.0280     2.0510    -0.0580 h1         1 J31       0.037700
    134 H49        -28.5550     1.5510     1.5710 h1         1 J31       0.037700
    135 H50        -26.2000     1.6700     2.3850 h1         1 J31       0.031700
    136 H51        -25.6490     2.1340     0.7530 h1         1 J31       0.031700
    137 H52        -25.4610     3.8940     3.3080 h1         1 J31       0.031200
    138 H53        -24.8630     4.3360     1.6870 h1         1 J31       0.031200
    139 H54        -26.4990     6.2170     1.5810 h1         1 J31       0.038700
    140 H55        -27.1340     5.7680     3.1850 h1         1 J31       0.038700
    141 H56        -25.6940     8.4340     2.4820 h1         1 J31       0.035700
    142 H57        -26.3730     8.0020     4.0720 h1         1 J31       0.035700
    143 H58        -24.0860     8.0560     5.0740 h1         1 J31       0.035200
    144 H59        -23.3920     8.4670     3.4850 h1         1 J31       0.035200
    145 H60        -23.3540    10.2700     6.0150 h1         1 J31       0.033700
    146 H61        -22.6170    10.6740     4.4430 h1         1 J31       0.033700
    147 H62        -24.1750    12.6000     4.1860 h1         1 J31       0.037700
    148 H63        -24.9700    12.1800     5.7250 h1         1 J31       0.037700
    149 H64        -23.4110    14.8060     5.1630 h1         1 J31       0.036200
    150 H65        -24.2440    14.3860     6.6820 h1         1 J31       0.036200
    151 H66        -22.0500    14.3790     7.8860 h1         1 J31       0.036200
    152 H67        -21.2140    14.8000     6.3690 h1         1 J31       0.036200
    153 H68        -21.3620    16.5670     8.9130 h1         1 J31       0.034700
    154 H69        -20.4940    16.9860     7.4130 h1         1 J31       0.034700
    155 H70        -22.0170    18.9320     7.0610 h1         1 J31       0.037700
    156 H71        -22.9200    18.5040     8.5380 h1         1 J31       0.037700
    157 H72        -21.3020    21.1160     8.1150 h1         1 J31       0.035700
    158 H73        -22.2310    20.6910     9.5770 h1         1 J31       0.035700
    159 H74        -20.1160    20.6440    10.9120 h1         1 J31       0.035700
    160 H75        -19.1820    21.0630     9.4530 h1         1 J31       0.035700
    161 H76        -19.4460    22.8080    11.9960 h1         1 J31       0.035200
    162 H77        -18.4860    23.2210    10.5520 h1         1 J31       0.035200
    163 H78        -19.9500    25.2020    10.1330 h1         1 J31       0.037200
    164 H79        -20.9340    24.7840    11.5610 h1         1 J31       0.037200
    165 H80        -19.2270    27.3590    11.2400 h1         1 J31       0.030700
    166 H81        -20.2410    26.9480    12.6460 h1         1 J31       0.030700
    167 H82        -18.2090    26.8370    14.0940 h1         1 J31       0.066700
    168 H83        -17.1750    27.1770    12.6910 h1         1 J31       0.066700
    169 H84        -17.6010    29.4350    12.9720 hn         1 J31       0.310500
    170 H85        -19.3200    31.1850    15.3320 hc         1 J31       0.057700
    171 H86        -18.1910    31.2610    13.9390 hc         1 J31       0.057700
    172 H87        -20.1370    31.3670    12.3830 hc         1 J31       0.053700
    173 H88        -21.2500    31.2920    13.7490 hc         1 J31       0.053700
    174 H89        -20.3220    33.4460    14.6340 hc         1 J31       0.044700
    175 H90        -19.1980    33.5280    13.2800 hc         1 J31       0.044700
    176 H91        -21.1260    33.6210    11.6800 hc         1 J31       0.055200
    177 H92        -22.2520    33.5520    13.0280 hc         1 J31       0.055200
    178 H2         -20.1590    35.7640    12.6710 h1         1 J31       0.067700
    179 H4         -21.7190    36.2710    10.8090 h1         1 J31       0.062700
    180 H3         -21.9930    38.5210    11.7630 h1         1 J31       0.070700
    181 H94        -20.6370    38.1080    13.7800 h1         1 J31       0.076700
    182 H93        -22.2020    38.4630    14.5300 h1         1 J31       0.076700
    183 H96        -23.7520    34.7570    11.6470 hn         1 J31       0.338500
    184 H95        -24.3200    38.5020    13.0530 hn         1 J31       0.340500
@<TRIPOS>BOND
     1     1     2 2   
     2     2     3 1   
     3     2    37 1   
     4     3     4 1   
     5     3    91 1   
     6     4     5 1   
     7     4    92 1   
     8     4    93 1   
     9     5     6 1   
    10     5    94 1   
    11     5    95 1   
    12     6     7 1   
    13     7     8 ar  
    14     7    12 ar  
    15     8     9 ar  
    16     8    96 1   
    17     9    10 ar  
    18     9    97 1   
    19    10    11 ar  
    20    10    98 1   
    21    11    12 ar  
    22    11    99 1   
    23    12    13 1   
    24    13    14 1   
    25    13    36 2   
    26    14    15 1   
    27    14   100 1   
    28    15    16 1   
    29    15   101 1   
    30    15   102 1   
    31    16    17 1   
    32    16   103 1   
    33    16   104 1   
    34    17    18 1   
    35    17   105 1   
    36    17   106 1   
    37    18    19 1   
    38    18   107 1   
    39    18   108 1   
    40    19    20 1   
    41    19    33 1   
    42    19   109 1   
    43    20    21 1   
    44    20   110 1   
    45    21    22 2   
    46    21    23 1   
    47    23    24 1   
    48    23   111 1   
    49    24    25 1   
    50    24    28 1   
    51    24   112 1   
    52    25    26 1   
    53    25    27 1   
    54    28    29 1   
    55    28   113 1   
    56    28   114 1   
    57    29    30 1   
    58    29   115 1   
    59    29   116 1   
    60    30    31 1   
    61    30    32 1   
    62    33    34 1   
    63    33    35 1   
    64    37    38 1   
    65    37   117 1   
    66    37   118 1   
    67    38    39 1   
    68    38   119 1   
    69    38   120 1   
    70    39    40 1   
    71    40    41 1   
    72    40   121 1   
    73    40   122 1   
    74    41    42 1   
    75    41   123 1   
    76    41   124 1   
    77    42    43 1   
    78    43    44 1   
    79    43   125 1   
    80    43   126 1   
    81    44    45 1   
    82    44   127 1   
    83    44   128 1   
    84    45    46 1   
    85    46    47 1   
    86    46   129 1   
    87    46   130 1   
    88    47    48 1   
    89    47   131 1   
    90    47   132 1   
    91    48    49 1   
    92    49    50 1   
    93    49   133 1   
    94    49   134 1   
    95    50    51 1   
    96    50   135 1   
    97    50   136 1   
    98    51    52 1   
    99    52    53 1   
   100    52   137 1   
   101    52   138 1   
   102    53    54 1   
   103    53   139 1   
   104    53   140 1   
   105    54    55 1   
   106    55    56 1   
   107    55   141 1   
   108    55   142 1   
   109    56    57 1   
   110    56   143 1   
   111    56   144 1   
   112    57    58 1   
   113    58    59 1   
   114    58   145 1   
   115    58   146 1   
   116    59    60 1   
   117    59   147 1   
   118    59   148 1   
   119    60    61 1   
   120    61    62 1   
   121    61   149 1   
   122    61   150 1   
   123    62    63 1   
   124    62   151 1   
   125    62   152 1   
   126    63    64 1   
   127    64    65 1   
   128    64   153 1   
   129    64   154 1   
   130    65    66 1   
   131    65   155 1   
   132    65   156 1   
   133    66    67 1   
   134    67    68 1   
   135    67   157 1   
   136    67   158 1   
   137    68    69 1   
   138    68   159 1   
   139    68   160 1   
   140    69    70 1   
   141    70    71 1   
   142    70   161 1   
   143    70   162 1   
   144    71    72 1   
   145    71   163 1   
   146    71   164 1   
   147    72    73 1   
   148    73    74 1   
   149    73   165 1   
   150    73   166 1   
   151    74    75 1   
   152    74   167 1   
   153    74   168 1   
   154    75    76 1   
   155    75   169 1   
   156    76    77 2   
   157    76    78 1   
   158    78    79 1   
   159    78   170 1   
   160    78   171 1   
   161    79    80 1   
   162    79   172 1   
   163    79   173 1   
   164    80    81 1   
   165    80   174 1   
   166    80   175 1   
   167    81    82 1   
   168    81   176 1   
   169    81   177 1   
   170    82    83 1   
   171    82    86 1   
   172    82   178 1   
   173    83    84 1   
   174    83    87 1   
   175    83   179 1   
   176    84    85 1   
   177    84    90 1   
   178    84   180 1   
   179    85    86 1   
   180    85   181 1   
   181    85   182 1   
   182    87    88 1   
   183    87   183 1   
   184    88    89 2   
   185    88    90 1   
   186    90   184 1   
@<TRIPOS>SUBSTRUCTURE
     1 J31         1 TEMP              0 ****  ****    0 ROOT
