@<TRIPOS>MOLECULE
J31
  184   186     1     0     0
SMALL
bcc


@<TRIPOS>ATOM
      1 O23        -28.4850   -10.9780    -6.4180 o          1 J31      -0.680100
      2 C21        -29.3070   -10.2320    -6.9330 c          1 J31       0.688100
      3 N3         -30.1760   -10.6940    -7.8590 ns         1 J31      -0.561900
      4 C20        -31.1230    -9.9460    -8.6480 c3         1 J31       0.053000
      5 C19        -30.6290    -9.6130   -10.0440 c3         1 J31       0.102400
      6 O8         -29.5420    -8.7030   -10.0160 os         1 J31      -0.263900
      7 C18        -28.2670    -9.1200    -9.9000 ca         1 J31       0.213100
      8 C17        -27.8350   -10.4380   -10.0440 ca         1 J31      -0.228000
      9 C16        -26.4960   -10.7590    -9.8690 ca         1 J31      -0.084000
     10 C15        -25.5640    -9.7810    -9.5520 ca         1 J31      -0.206000
     11 C14        -25.9970    -8.4690    -9.4050 ca         1 J31      -0.083000
     12 C13        -27.3340    -8.1260    -9.5860 ca         1 J31      -0.184600
     13 C          -27.7400    -6.6850    -9.4680 c          1 J31       0.674700
     14 N          -27.3980    -6.1140    -8.3020 ns         1 J31      -0.582900
     15 C1         -27.4780    -4.6970    -8.0240 c3         1 J31       0.119000
     16 C2         -28.8330    -4.2180    -7.5140 c3         1 J31      -0.107400
     17 C3         -28.7100    -2.7900    -6.9830 c3         1 J31      -0.059400
     18 C4         -29.9990    -2.0390    -6.6460 c3         1 J31      -0.082400
     19 C5         -30.7390    -2.5130    -5.3900 c3         1 J31       0.016700
     20 N1         -31.2390    -3.8700    -5.4750 ns         1 J31      -0.582900
     21 C7         -32.2390    -4.2440    -6.3110 c          1 J31       0.782100
     22 O7         -32.8630    -3.4360    -6.9970 o          1 J31      -0.657100
     23 N2         -32.5460    -5.5720    -6.2850 ns         1 J31      -0.565900
     24 C8         -33.3360    -6.2180    -7.3170 c3         1 J31      -0.020300
     25 C12        -33.7560    -7.6160    -6.8060 c          1 J31       0.929600
     26 O6         -32.9420    -8.2000    -6.0540 o          1 J31      -0.870300
     27 O5         -34.8440    -8.0630    -7.2100 o          1 J31      -0.870300
     28 C9         -32.5570    -6.3200    -8.6430 c3         1 J31      -0.067400
     29 C10        -33.3700    -6.8350    -9.8260 c3         1 J31      -0.192400
     30 C11        -32.6820    -6.6850   -11.1960 c          1 J31       0.912600
     31 O4         -31.9630    -5.6820   -11.3680 o          1 J31      -0.871300
     32 O3         -32.9440    -7.5620   -12.0500 o          1 J31      -0.871300
     33 C6         -31.8300    -1.5210    -4.8780 c          1 J31       0.942600
     34 O2         -31.7200    -0.3320    -5.2410 o          1 J31      -0.843800
     35 O1         -32.6830    -1.9880    -4.1010 o          1 J31      -0.843800
     36 O          -28.3050    -6.0910   -10.3690 o          1 J31      -0.526100
     37 C22        -29.4410    -8.7890    -6.5060 c3         1 J31      -0.186400
     38 C23        -28.3770    -8.3990    -5.5020 c3         1 J31       0.156400
     39 O9         -28.6100    -7.0650    -5.1260 os         1 J31      -0.392600
     40 C24        -27.6820    -6.6030    -4.1880 c3         1 J31       0.142400
     41 C25        -28.0750    -5.1850    -3.8290 c3         1 J31       0.117400
     42 O10        -27.1660    -4.6750    -2.8890 os         1 J31      -0.439600
     43 C26        -27.5080    -3.3770    -2.4700 c3         1 J31       0.131400
     44 C27        -26.4970    -2.9190    -1.4380 c3         1 J31       0.136400
     45 O11        -26.9140    -1.6590    -0.9760 os         1 J31      -0.399600
     46 C28        -26.0890    -1.1380     0.0320 c3         1 J31       0.144400
     47 C29        -26.6940     0.1800     0.4760 c3         1 J31       0.129400
     48 O12        -25.9150     0.6920     1.5280 os         1 J31      -0.428600
     49 C30        -26.4020     1.9090     2.0340 c3         1 J31       0.139400
     50 C31        -25.5130     2.3420     3.1840 c3         1 J31       0.136400
     51 O13        -26.0350     3.5460     3.6810 os         1 J31      -0.417600
     52 C32        -25.3130     4.0730     4.7630 c3         1 J31       0.142400
     53 C33        -25.9710     5.3840     5.1440 c3         1 J31       0.132400
     54 O14        -25.2890     5.9320     6.2450 os         1 J31      -0.420600
     55 C34        -25.7890     7.1920     6.6160 c3         1 J31       0.137400
     56 C35        -24.9580     7.7340     7.7650 c3         1 J31       0.139400
     57 O15        -25.4610     9.0110     8.0680 os         1 J31      -0.422600
     58 C36        -24.7280     9.7050     9.0440 c3         1 J31       0.141400
     59 C37        -25.3070    11.1050     9.1250 c3         1 J31       0.133400
     60 O16        -24.5690    11.8450    10.0660 os         1 J31      -0.419600
     61 C38        -24.9320    13.2010    10.0940 c3         1 J31       0.137400
     62 C39        -24.0260    13.9150    11.0780 c3         1 J31       0.137400
     63 O17        -24.3470    15.2820    11.0300 os         1 J31      -0.419600
     64 C40        -23.5450    16.0730    11.8670 c3         1 J31       0.138400
     65 C41        -23.8630    17.5250    11.5680 c3         1 J31       0.134400
     66 O18        -23.0730    18.3250    12.4120 os         1 J31      -0.418600
     67 C42        -23.1540    19.6900    12.0990 c3         1 J31       0.136400
     68 C43        -22.2670    20.4530    13.0640 c3         1 J31       0.138400
     69 O19        -22.2860    21.8010    12.6710 os         1 J31      -0.419600
     70 C44        -21.5320    22.6400    13.5060 c3         1 J31       0.138400
     71 C45        -21.4890    24.0060    12.8480 c3         1 J31       0.133400
     72 O20        -20.8030    24.8880    13.7000 os         1 J31      -0.413600
     73 C46        -20.5800    26.1370    13.1000 c3         1 J31       0.113400
     74 C47        -19.9360    27.0660    14.1180 c3         1 J31       0.101000
     75 N4         -19.5850    28.3300    13.5140 ns         1 J31      -0.576900
     76 C48        -20.4570    29.3360    13.3130 c          1 J31       0.665100
     77 O22        -21.6210    29.2930    13.6900 o          1 J31      -0.596100
     78 C49        -19.8830    30.5540    12.6200 c3         1 J31      -0.158400
     79 C50        -20.6770    30.9230    11.3700 c3         1 J31      -0.068400
     80 C51        -20.1020    32.1440    10.6620 c3         1 J31      -0.077400
     81 C52        -20.8680    32.4900     9.3890 c3         1 J31      -0.059400
     82 C53        -20.2630    33.6420     8.6080 c5         1 J31       0.025400
     83 C56        -20.9470    33.9280     7.2670 c5         1 J31       0.096700
     84 C55        -20.6190    35.3890     6.8380 c5         1 J31       0.102700
     85 C54        -19.8590    36.0820     7.9740 c5         1 J31      -0.019300
     86 S          -20.3350    35.2320     9.5020 ss         1 J31      -0.312200
     87 N6         -22.3830    33.9380     7.3600 ns         1 J31      -0.578900
     88 C57        -22.9450    35.1050     6.9350 c          1 J31       0.822500
     89 O21        -24.1380    35.3460     6.8550 o          1 J31      -0.647500
     90 N5         -21.9270    35.9370     6.5930 ns         1 J31      -0.588900
     91 H31        -30.0530   -11.6660    -8.1080 hn         1 J31       0.281500
     92 H29        -32.0360   -10.5360    -8.7540 h1         1 J31       0.104700
     93 H30        -31.4090    -9.0350    -8.1210 h1         1 J31       0.104700
     94 H27        -30.3930   -10.5200   -10.6080 h1         1 J31       0.082700
     95 H28        -31.4220    -9.0980   -10.5840 h1         1 J31       0.082700
     96 H26        -28.5290   -11.2350   -10.2680 ha         1 J31       0.130000
     97 H25        -26.1870   -11.7930    -9.9760 ha         1 J31       0.105000
     98 H24        -24.5220   -10.0340    -9.4090 ha         1 J31       0.108000
     99 H23        -25.2800    -7.6930    -9.1680 ha         1 J31       0.118000
    100 H5         -27.0170    -6.7130    -7.5750 hn         1 J31       0.301500
    101 H6         -26.7140    -4.4900    -7.2740 h1         1 J31       0.020700
    102 H7         -27.1980    -4.1420    -8.9220 h1         1 J31       0.020700
    103 H8         -29.5710    -4.2650    -8.3220 hc         1 J31       0.080700
    104 H9         -29.1790    -4.9000    -6.7430 hc         1 J31       0.080700
    105 H10        -28.0560    -2.7950    -6.1010 hc         1 J31      -0.005800
    106 H11        -28.1740    -2.2010    -7.7370 hc         1 J31      -0.005800
    107 H12        -29.7360    -0.9920    -6.4920 hc         1 J31       0.060200
    108 H13        -30.6690    -2.0550    -7.5060 hc         1 J31       0.060200
    109 H          -29.9930    -2.5500    -4.5840 h1         1 J31      -0.016300
    110 H15        -30.7480    -4.5820    -4.9660 hn         1 J31       0.272500
    111 H16        -31.9470    -6.2080    -5.7770 hn         1 J31       0.296500
    112 H1         -34.2390    -5.6270    -7.4930 h1         1 J31       0.063700
    113 H17        -32.1740    -5.3270    -8.8890 hc         1 J31       0.028200
    114 H18        -31.6780    -6.9540    -8.4840 hc         1 J31       0.028200
    115 H19        -33.6600    -7.8770    -9.6760 hc         1 J31       0.023200
    116 H20        -34.3130    -6.2750    -9.8730 hc         1 J31       0.023200
    117 H32        -29.3760    -8.1270    -7.3720 hc         1 J31       0.121700
    118 H33        -30.4380    -8.6260    -6.0860 hc         1 J31       0.121700
    119 H34        -28.4210    -9.0510    -4.6220 h1         1 J31       0.016700
    120 H35        -27.3790    -8.5130    -5.9420 h1         1 J31       0.016700
    121 H36        -27.6910    -7.2310    -3.2860 h1         1 J31       0.012200
    122 H37        -26.6610    -6.6280    -4.5930 h1         1 J31       0.012200
    123 H38        -28.0880    -4.5590    -4.7300 h1         1 J31       0.061200
    124 H39        -29.0960    -5.1810    -3.4220 h1         1 J31       0.061200
    125 H40        -27.5260    -2.6730    -3.3160 h1         1 J31       0.056700
    126 H41        -28.5140    -3.3670    -2.0250 h1         1 J31       0.056700
    127 H42        -26.4590    -3.6370    -0.6080 h1         1 J31       0.021700
    128 H43        -25.4910    -2.8720    -1.8790 h1         1 J31       0.021700
    129 H44        -26.0420    -1.8260     0.8880 h1         1 J31       0.022700
    130 H45        -25.0610    -0.9880    -0.3280 h1         1 J31       0.022700
    131 H46        -26.7390     0.8820    -0.3690 h1         1 J31       0.046700
    132 H47        -27.7290     0.0120     0.8060 h1         1 J31       0.046700
    133 H48        -26.4200     2.6890     1.2590 h1         1 J31       0.037700
    134 H49        -27.4340     1.7930     2.3930 h1         1 J31       0.037700
    135 H50        -25.5100     1.5680     3.9640 h1         1 J31       0.031700
    136 H51        -24.4770     2.4650     2.8370 h1         1 J31       0.031700
    137 H52        -25.3340     3.3820     5.6170 h1         1 J31       0.031200
    138 H53        -24.2590     4.2410     4.4990 h1         1 J31       0.031200
    139 H54        -25.9560     6.0690     4.2840 h1         1 J31       0.038700
    140 H55        -27.0280     5.2090     5.3900 h1         1 J31       0.038700
    141 H56        -25.7540     7.8930     5.7700 h1         1 J31       0.035700
    142 H57        -26.8430     7.1160     6.9190 h1         1 J31       0.035700
    143 H58        -25.0300     7.0660     8.6350 h1         1 J31       0.035200
    144 H59        -23.9010     7.7810     7.4710 h1         1 J31       0.035200
    145 H60        -24.7990     9.2050    10.0200 h1         1 J31       0.033700
    146 H61        -23.6630     9.7580     8.7780 h1         1 J31       0.033700
    147 H62        -25.2620    11.5720     8.1310 h1         1 J31       0.037700
    148 H63        -26.3680    11.0590     9.4090 h1         1 J31       0.037700
    149 H64        -24.8310    13.6550     9.0980 h1         1 J31       0.036200
    150 H65        -25.9830    13.3190    10.3940 h1         1 J31       0.036200
    151 H66        -24.1760    13.5090    12.0880 h1         1 J31       0.036200
    152 H67        -22.9760    13.7430    10.8050 h1         1 J31       0.036200
    153 H68        -23.7420    15.8510    12.9250 h1         1 J31       0.034700
    154 H69        -22.4790    15.8840    11.6860 h1         1 J31       0.034700
    155 H70        -23.6490    17.7330    10.5090 h1         1 J31       0.037700
    156 H71        -24.9330    17.7200    11.7270 h1         1 J31       0.037700
    157 H72        -22.8260    19.8730    11.0660 h1         1 J31       0.035700
    158 H73        -24.1900    20.0510    12.1760 h1         1 J31       0.035700
    159 H74        -22.6370    20.3300    14.0910 h1         1 J31       0.035700
    160 H75        -21.2470    20.0470    13.0330 h1         1 J31       0.035700
    161 H76        -21.9800    22.7100    14.5070 h1         1 J31       0.035200
    162 H77        -20.5110    22.2560    13.6340 h1         1 J31       0.035200
    163 H78        -20.9830    23.9220    11.8760 h1         1 J31       0.037200
    164 H79        -22.5110    24.3600    12.6520 h1         1 J31       0.037200
    165 H80        -19.9220    26.0330    12.2250 h1         1 J31       0.030700
    166 H81        -21.5230    26.5750    12.7430 h1         1 J31       0.030700
    167 H82        -20.6100    27.2280    14.9590 h1         1 J31       0.066700
    168 H83        -19.0240    26.6130    14.5100 h1         1 J31       0.066700
    169 H84        -18.6590    28.4160    13.1310 hn         1 J31       0.310500
    170 H85        -19.9080    31.3890    13.3280 hc         1 J31       0.057700
    171 H86        -18.8320    30.4030    12.3600 hc         1 J31       0.057700
    172 H87        -20.6800    30.0730    10.6810 hc         1 J31       0.053700
    173 H88        -21.7190    31.1120    11.6390 hc         1 J31       0.053700
    174 H89        -20.1080    32.9980    11.3470 hc         1 J31       0.044700
    175 H90        -19.0510    31.9620    10.4120 hc         1 J31       0.044700
    176 H91        -20.8830    31.6110     8.7350 hc         1 J31       0.055200
    177 H92        -21.9100    32.7150     9.6320 hc         1 J31       0.055200
    178 H2         -19.2090    33.4230     8.4050 h1         1 J31       0.067700
    179 H4         -20.6030    33.2000     6.5270 h1         1 J31       0.062700
    180 H3         -20.0100    35.4160     5.9310 h1         1 J31       0.070700
    181 H94        -18.7840    35.9830     7.8210 h1         1 J31       0.076700
    182 H93        -20.0960    37.1430     8.0400 h1         1 J31       0.076700
    183 H96        -22.9200    33.0870     7.3630 hn         1 J31       0.338500
    184 H95        -22.0810    36.9190     6.4340 hn         1 J31       0.340500
@<TRIPOS>BOND
     1     1     2 2   
     2     2     3 1   
     3     2    37 1   
     4     3     4 1   
     5     3    91 1   
     6     4     5 1   
     7     4    92 1   
     8     4    93 1   
     9     5     6 1   
    10     5    94 1   
    11     5    95 1   
    12     6     7 1   
    13     7     8 ar  
    14     7    12 ar  
    15     8     9 ar  
    16     8    96 1   
    17     9    10 ar  
    18     9    97 1   
    19    10    11 ar  
    20    10    98 1   
    21    11    12 ar  
    22    11    99 1   
    23    12    13 1   
    24    13    14 1   
    25    13    36 2   
    26    14    15 1   
    27    14   100 1   
    28    15    16 1   
    29    15   101 1   
    30    15   102 1   
    31    16    17 1   
    32    16   103 1   
    33    16   104 1   
    34    17    18 1   
    35    17   105 1   
    36    17   106 1   
    37    18    19 1   
    38    18   107 1   
    39    18   108 1   
    40    19    20 1   
    41    19    33 1   
    42    19   109 1   
    43    20    21 1   
    44    20   110 1   
    45    21    22 2   
    46    21    23 1   
    47    23    24 1   
    48    23   111 1   
    49    24    25 1   
    50    24    28 1   
    51    24   112 1   
    52    25    26 1   
    53    25    27 1   
    54    28    29 1   
    55    28   113 1   
    56    28   114 1   
    57    29    30 1   
    58    29   115 1   
    59    29   116 1   
    60    30    31 1   
    61    30    32 1   
    62    33    34 1   
    63    33    35 1   
    64    37    38 1   
    65    37   117 1   
    66    37   118 1   
    67    38    39 1   
    68    38   119 1   
    69    38   120 1   
    70    39    40 1   
    71    40    41 1   
    72    40   121 1   
    73    40   122 1   
    74    41    42 1   
    75    41   123 1   
    76    41   124 1   
    77    42    43 1   
    78    43    44 1   
    79    43   125 1   
    80    43   126 1   
    81    44    45 1   
    82    44   127 1   
    83    44   128 1   
    84    45    46 1   
    85    46    47 1   
    86    46   129 1   
    87    46   130 1   
    88    47    48 1   
    89    47   131 1   
    90    47   132 1   
    91    48    49 1   
    92    49    50 1   
    93    49   133 1   
    94    49   134 1   
    95    50    51 1   
    96    50   135 1   
    97    50   136 1   
    98    51    52 1   
    99    52    53 1   
   100    52   137 1   
   101    52   138 1   
   102    53    54 1   
   103    53   139 1   
   104    53   140 1   
   105    54    55 1   
   106    55    56 1   
   107    55   141 1   
   108    55   142 1   
   109    56    57 1   
   110    56   143 1   
   111    56   144 1   
   112    57    58 1   
   113    58    59 1   
   114    58   145 1   
   115    58   146 1   
   116    59    60 1   
   117    59   147 1   
   118    59   148 1   
   119    60    61 1   
   120    61    62 1   
   121    61   149 1   
   122    61   150 1   
   123    62    63 1   
   124    62   151 1   
   125    62   152 1   
   126    63    64 1   
   127    64    65 1   
   128    64   153 1   
   129    64   154 1   
   130    65    66 1   
   131    65   155 1   
   132    65   156 1   
   133    66    67 1   
   134    67    68 1   
   135    67   157 1   
   136    67   158 1   
   137    68    69 1   
   138    68   159 1   
   139    68   160 1   
   140    69    70 1   
   141    70    71 1   
   142    70   161 1   
   143    70   162 1   
   144    71    72 1   
   145    71   163 1   
   146    71   164 1   
   147    72    73 1   
   148    73    74 1   
   149    73   165 1   
   150    73   166 1   
   151    74    75 1   
   152    74   167 1   
   153    74   168 1   
   154    75    76 1   
   155    75   169 1   
   156    76    77 2   
   157    76    78 1   
   158    78    79 1   
   159    78   170 1   
   160    78   171 1   
   161    79    80 1   
   162    79   172 1   
   163    79   173 1   
   164    80    81 1   
   165    80   174 1   
   166    80   175 1   
   167    81    82 1   
   168    81   176 1   
   169    81   177 1   
   170    82    83 1   
   171    82    86 1   
   172    82   178 1   
   173    83    84 1   
   174    83    87 1   
   175    83   179 1   
   176    84    85 1   
   177    84    90 1   
   178    84   180 1   
   179    85    86 1   
   180    85   181 1   
   181    85   182 1   
   182    87    88 1   
   183    87   183 1   
   184    88    89 2   
   185    88    90 1   
   186    90   184 1   
@<TRIPOS>SUBSTRUCTURE
     1 J31         1 TEMP              0 ****  ****    0 ROOT
