@<TRIPOS>MOLECULE
J32
   56    60     1     0     0
SMALL
No Charge or Current Charge


@<TRIPOS>ATOM
      1 C1          -3.5240    -4.6770    -2.3570 ca         1 J32      -0.117000
      2 C2          -2.6740    -4.2690    -3.3990 ca         1 J32      -0.110000
      3 C3          -1.2810    -4.2730    -3.2130 ca         1 J32      -0.113000
      4 C4           0.6570    -4.6900    -1.7950 ca         1 J32      -0.131000
      5 C5           1.2060    -5.1010    -0.5690 ca         1 J32      -0.059000
      6 C6           0.8940    -5.9370     1.7470 ca         1 J32       0.109000
      7 C7           0.0190    -6.3400     2.7720 ca         1 J32      -0.098000
      8 OP1          9.8460    -3.7740     9.3040 o          1 J32      -0.904500
      9 OP2          7.9760    -2.4570     8.4590 o          1 J32      -0.904500
     10 O5           8.7780    -4.4470     7.1240 os         1 J32      -0.606400
     11 C18          9.6670    -3.8230     6.1620 c3         1 J32       0.202300
     12 C19          9.2180    -4.2290     4.7280 c3         1 J32       0.147600
     13 O1           9.4980    -5.6280     4.4950 os         1 J32      -0.434000
     14 C2A          7.7000    -6.0690     2.9170 ca         1 J32      -0.093300
     15 C12          7.1570    -5.2290     1.9250 ca         1 J32      -0.099000
     16 C11          5.7700    -5.2040     1.6980 ca         1 J32      -0.078000
     17 C4A          4.9140    -6.0190     2.4600 ca         1 J32      -0.040000
     18 C14          5.4520    -6.8600     3.4520 ca         1 J32      -0.078000
     19 C13          6.8400    -6.8840     3.6790 ca         1 J32      -0.099000
     20 C15          3.4990    -5.9940     2.2270 cg         1 J32       0.002000
     21 C16          2.2980    -5.9690     2.0140 ch         1 J32      -0.210000
     22 C8          -1.3690    -6.3320     2.5740 ca         1 J32      -0.082000
     23 C8A         -1.9010    -5.9180     1.3420 ca         1 J32      -0.061000
     24 C1B         -1.0370    -5.5100     0.3010 ca         1 J32      -0.009000
     25 C1A         -1.5840    -5.0960    -0.9350 ca         1 J32      -0.020000
     26 C3A         -0.7340    -4.6850    -1.9830 ca         1 J32      -0.016000
     27 C5A          0.3680    -5.5160     0.4950 ca         1 J32      -0.045000
     28 C1C         -2.9840    -5.0910    -1.1250 ca         1 J32      -0.023000
     29 C10         -3.8350    -5.4990    -0.0830 ca         1 J32      -0.122000
     30 C9          -3.2950    -5.9110     1.1460 ca         1 J32      -0.077000
     31 C17         11.1650    -4.1850     6.4530 c3         1 J32       0.170600
     32 O3          11.6840    -3.5100     7.6090 oh         1 J32      -0.785000
     33 H1          -4.6010    -4.6710    -2.5090 ha         1 J32       0.103000
     34 H2          -3.0940    -3.9500    -4.3500 ha         1 J32       0.101000
     35 H3          -0.6300    -3.9560    -4.0240 ha         1 J32       0.107000
     36 H4           1.3190    -4.3750    -2.5980 ha         1 J32       0.109000
     37 H5           2.2880    -5.0900    -0.4620 ha         1 J32       0.130000
     38 H7           0.4190    -6.6630     3.7310 ha         1 J32       0.138000
     39 H15          9.5710    -2.7300     6.2190 h1         1 J32       0.049700
     40 H17          9.7640    -3.6120     4.0030 h1         1 J32       0.008200
     41 H3'          8.1480    -4.0170     4.6090 h1         1 J32       0.008200
     42 H18          9.5600    -7.1330     3.0530 h1         1 J32       0.026200
     43 H4'          9.7280    -5.4900     2.4180 h1         1 J32       0.026200
     44 H12          7.8090    -4.5920     1.3290 ha         1 J32       0.151000
     45 H11          5.3620    -4.5500     0.9290 ha         1 J32       0.118000
     46 H14          4.7980    -7.4930     4.0480 ha         1 J32       0.118000
     47 H13          7.2480    -7.5340     4.4510 ha         1 J32       0.151000
     48 H8          -2.0290    -6.6480     3.3790 ha         1 J32       0.113000
     49 H10         -4.9130    -5.4980    -0.2220 ha         1 J32       0.104000
     50 H9          -3.9620    -6.2250     1.9460 ha         1 J32       0.108000
     51 H1'         11.2560    -5.2710     6.5850 h1         1 J32      -0.009300
     52 H6          11.7680    -3.9120     5.5770 h1         1 J32      -0.009300
     53 H16         10.9630    -3.6250     8.3260 ho         1 J32       0.543000
     54 OP3          7.5960    -4.6940     9.3350 o          1 J32      -0.904500
     55 C20          9.2060    -6.1000     3.1670 c3         1 J32       0.204900
     56 P            8.5430    -3.8250     8.5880 p5         1 J32       1.286900
@<TRIPOS>BOND
     1     1     2 ar  
     2     1    28 ar  
     3     1    33 1   
     4     2     3 ar  
     5     2    34 1   
     6     3    26 ar  
     7     3    35 1   
     8     4     5 ar  
     9     4    26 ar  
    10     4    36 1   
    11     5    27 ar  
    12     5    37 1   
    13     6     7 ar  
    14     6    21 1   
    15     6    27 ar  
    16     7    22 ar  
    17     7    38 1   
    18     8    56 1   
    19     9    56 1   
    20    10    11 1   
    21    10    56 1   
    22    11    12 1   
    23    11    31 1   
    24    11    39 1   
    25    12    13 1   
    26    12    40 1   
    27    12    41 1   
    28    13    55 1   
    29    14    15 ar  
    30    14    19 ar  
    31    14    55 1   
    32    15    16 ar  
    33    15    44 1   
    34    16    17 ar  
    35    16    45 1   
    36    17    18 ar  
    37    17    20 1   
    38    18    19 ar  
    39    18    46 1   
    40    19    47 1   
    41    20    21 3   
    42    22    23 ar  
    43    22    48 1   
    44    23    24 ar  
    45    23    30 ar  
    46    24    25 ar  
    47    24    27 ar  
    48    25    26 ar  
    49    25    28 ar  
    50    28    29 ar  
    51    29    30 ar  
    52    29    49 1   
    53    30    50 1   
    54    31    32 1   
    55    31    51 1   
    56    31    52 1   
    57    32    53 1   
    58    42    55 1   
    59    43    55 1   
    60    54    56 1   
@<TRIPOS>SUBSTRUCTURE
     1 J32         1 TEMP              0 ****  ****    0 ROOT
