@<TRIPOS>MOLECULE
J32
   56    60     1     0     0
SMALL
abcg2


@<TRIPOS>ATOM
      1 C1          -3.5600    -5.0970    -2.2450 ca         1 J32      -0.117000
      2 C2          -2.7590    -4.8450    -3.3530 ca         1 J32      -0.110000
      3 C3          -1.3770    -4.7910    -3.2290 ca         1 J32      -0.113000
      4 C4           0.6570    -4.9450    -1.8180 ca         1 J32      -0.131000
      5 C5           1.2320    -5.1450    -0.6050 ca         1 J32      -0.059000
      6 C6           1.0220    -5.6230     1.8350 ca         1 J32       0.109000
      7 C7           0.1900    -5.8720     2.9400 ca         1 J32      -0.098000
      8 OP1          8.8860    -4.9260     9.2550 o          1 J32      -0.904500
      9 OP2          7.6340    -2.9440     8.2440 o          1 J32      -0.904500
     10 O5           8.5380    -4.7980     6.7310 os         1 J32      -0.606400
     11 C18          9.6870    -4.1040     6.2530 c3         1 J32       0.202300
     12 C19          9.6190    -4.0610     4.7380 c3         1 J32       0.147600
     13 O1           9.7600    -5.3770     4.2050 os         1 J32      -0.434000
     14 C2A          7.8240    -5.4970     2.7020 ca         1 J32      -0.093300
     15 C12          7.2610    -5.2520     1.4480 ca         1 J32      -0.099000
     16 C11          5.8880    -5.2830     1.2660 ca         1 J32      -0.078000
     17 C4A          5.0340    -5.5500     2.3490 ca         1 J32      -0.040000
     18 C14          5.6030    -5.7890     3.6100 ca         1 J32      -0.078000
     19 C13          6.9790    -5.7660     3.7780 ca         1 J32      -0.099000
     20 C15          3.6260    -5.5670     2.1710 cg         1 J32       0.002000
     21 C16          2.4270    -5.5910     2.0120 ch         1 J32      -0.210000
     22 C8          -1.1840    -5.9180     2.8060 ca         1 J32      -0.082000
     23 C8A         -1.7930    -5.7160     1.5610 ca         1 J32      -0.061000
     24 C1B         -0.9730    -5.4580     0.4260 ca         1 J32      -0.009000
     25 C1A         -1.5740    -5.2510    -0.8460 ca         1 J32      -0.020000
     26 C3A         -0.7640    -4.9910    -1.9860 ca         1 J32      -0.016000
     27 C5A          0.4430    -5.4090     0.5590 ca         1 J32      -0.045000
     28 C1C         -2.9900    -5.3020    -0.9830 ca         1 J32      -0.023000
     29 C10         -3.7860    -5.5640     0.1790 ca         1 J32      -0.122000
     30 C9          -3.2130    -5.7620     1.3930 ca         1 J32      -0.077000
     31 C17         10.9800    -4.7410     6.7610 c3         1 J32       0.170600
     32 O3          11.2150    -4.5000     8.1390 oh         1 J32      -0.785000
     33 H1          -4.6370    -5.1370    -2.3490 ha         1 J32       0.103000
     34 H2          -3.2180    -4.6890    -4.3220 ha         1 J32       0.101000
     35 H3          -0.7570    -4.5940    -4.0960 ha         1 J32       0.107000
     36 H4           1.2710    -4.7450    -2.6880 ha         1 J32       0.109000
     37 H5           2.3080    -5.1070    -0.4990 ha         1 J32       0.130000
     38 H7           0.6460    -6.0300     3.9080 ha         1 J32       0.138000
     39 H15          9.6570    -3.0640     6.6010 h1         1 J32       0.049700
     40 H17         10.4190    -3.4200     4.3450 h1         1 J32       0.008200
     41 H3'          8.6580    -3.6320     4.4410 h1         1 J32       0.008200
     42 H18          9.7310    -6.4460     2.5030 h1         1 J32       0.026200
     43 H4'          9.7640    -4.7020     2.2430 h1         1 J32       0.026200
     44 H12          7.9050    -5.0320     0.6050 ha         1 J32       0.151000
     45 H11          5.4630    -5.0910     0.2890 ha         1 J32       0.118000
     46 H14          4.9570    -5.9860     4.4550 ha         1 J32       0.118000
     47 H13          7.4050    -5.9320     4.7580 ha         1 J32       0.151000
     48 H8          -1.8040    -6.1120     3.6720 ha         1 J32       0.113000
     49 H10         -4.8630    -5.6020     0.0660 ha         1 J32       0.104000
     50 H9          -3.8250    -5.9590     2.2650 ha         1 J32       0.108000
     51 H1'         10.9430    -5.8170     6.5500 h1         1 J32      -0.009300
     52 H6          11.8240    -4.3210     6.2050 h1         1 J32      -0.009300
     53 H16         10.3570    -4.6880     8.6260 ho         1 J32       0.543000
     54 OP3          6.5890    -5.2930     8.1960 o          1 J32      -0.904500
     55 C20          9.3290    -5.4960     2.8640 c3         1 J32       0.204900
     56 P            7.8500    -4.4480     8.2190 p5         1 J32       1.286900
@<TRIPOS>BOND
     1     1     2 ar  
     2     1    28 ar  
     3     1    33 1   
     4     2     3 ar  
     5     2    34 1   
     6     3    26 ar  
     7     3    35 1   
     8     4     5 ar  
     9     4    26 ar  
    10     4    36 1   
    11     5    27 ar  
    12     5    37 1   
    13     6     7 ar  
    14     6    21 1   
    15     6    27 ar  
    16     7    22 ar  
    17     7    38 1   
    18     8    56 1   
    19     9    56 1   
    20    10    11 1   
    21    10    56 1   
    22    11    12 1   
    23    11    31 1   
    24    11    39 1   
    25    12    13 1   
    26    12    40 1   
    27    12    41 1   
    28    13    55 1   
    29    14    15 ar  
    30    14    19 ar  
    31    14    55 1   
    32    15    16 ar  
    33    15    44 1   
    34    16    17 ar  
    35    16    45 1   
    36    17    18 ar  
    37    17    20 1   
    38    18    19 ar  
    39    18    46 1   
    40    19    47 1   
    41    20    21 3   
    42    22    23 ar  
    43    22    48 1   
    44    23    24 ar  
    45    23    30 ar  
    46    24    25 ar  
    47    24    27 ar  
    48    25    26 ar  
    49    25    28 ar  
    50    28    29 ar  
    51    29    30 ar  
    52    29    49 1   
    53    30    50 1   
    54    31    32 1   
    55    31    51 1   
    56    31    52 1   
    57    32    53 1   
    58    42    55 1   
    59    43    55 1   
    60    54    56 1   
@<TRIPOS>SUBSTRUCTURE
     1 J32         1 TEMP              0 ****  ****    0 ROOT
