@<TRIPOS>MOLECULE
J33
   23    25     1     0     0
SMALL
abcg2


@<TRIPOS>ATOM
      1 C1         124.2010   124.6010    79.6810 c6         1 J33       0.309100
      2 C2         126.5650   125.4140    80.1540 c5         1 J33       0.126800
      3 C3         124.7720   126.7210    80.7720 c2         1 J33       0.722800
      4 C4         122.7970   125.0970    79.9120 ca         1 J33      -0.157300
      5 C5         122.5670   126.3350    80.5360 ca         1 J33       0.203400
      6 C6         127.0480   126.6910    80.8140 c          1 J33       0.565000
      7 C7         121.7130   124.3300    79.5060 ca         1 J33       0.146000
      8 C8         121.2510   126.7560    80.7300 ca         1 J33      -0.098000
      9 C9         120.4060   124.7630    79.7040 ca         1 J33       0.095000
     10 C10        120.1810   125.9830    80.3210 ca         1 J33      -0.075000
     11 CL1        122.0020   122.8130    78.7340 cl         1 J33      -0.182000
     12 CL2        119.0690   123.8020    79.1940 cl         1 J33      -0.172000
     13 O1         128.1870   127.0280    81.0180 o          1 J33      -0.489000
     14 N1         125.1370   125.5660    80.1970 nh         1 J33      -0.806600
     15 N2         125.9180   127.3880    81.1350 ns         1 J33      -0.430400
     16 N3         123.5860   127.1670    80.9730 ne         1 J33      -0.685100
     17 H2         124.3590   123.6350    80.1740 h1         1 J33       0.056200
     18 H1         124.3840   124.4420    78.6130 h1         1 J33       0.056200
     19 H3         126.9080   124.5350    80.7090 h1         1 J33       0.086700
     20 H4         126.9460   125.3390    79.1300 h1         1 J33       0.086700
     21 H6         121.0750   127.7080    81.2120 ha         1 J33       0.138000
     22 H7         119.1690   126.3270    80.4810 ha         1 J33       0.134000
     23 H5         125.9070   128.2910    81.5900 hn         1 J33       0.368500
@<TRIPOS>BOND
     1     1     4 1   
     2     1    14 1   
     3     1    17 1   
     4     1    18 1   
     5     2     6 1   
     6     2    14 1   
     7     2    19 1   
     8     2    20 1   
     9     3    14 1   
    10     3    15 1   
    11     3    16 2   
    12     4     5 ar  
    13     4     7 ar  
    14     5     8 ar  
    15     5    16 1   
    16     6    13 2   
    17     6    15 1   
    18     7     9 ar  
    19     7    11 1   
    20     8    10 ar  
    21     8    21 1   
    22     9    10 ar  
    23     9    12 1   
    24    10    22 1   
    25    15    23 1   
@<TRIPOS>SUBSTRUCTURE
     1 J33         1 TEMP              0 ****  ****    0 ROOT
