@<TRIPOS>MOLECULE
J33
   23    25     1     0     0
SMALL
No Charge or Current Charge


@<TRIPOS>ATOM
      1 C1         124.1960   124.6650    79.5840 c6         1 J33       0.309100
      2 C2         126.6590   125.3360    80.2940 c5         1 J33       0.126800
      3 C3         124.8020   126.7410    80.7560 c2         1 J33       0.722800
      4 C4         122.7560   125.1020    79.8690 ca         1 J33      -0.157300
      5 C5         122.5200   126.3520    80.4820 ca         1 J33       0.203400
      6 C6         127.1290   126.6980    80.8570 c          1 J33       0.565000
      7 C7         121.6620   124.2880    79.5000 ca         1 J33       0.146000
      8 C8         121.2050   126.7780    80.7310 ca         1 J33      -0.098000
      9 C9         120.3420   124.7220    79.7570 ca         1 J33       0.095000
     10 C10        120.1170   125.9640    80.3720 ca         1 J33      -0.075000
     11 Cl1        121.9400   122.7320    78.7060 cl         1 J33      -0.182000
     12 Cl2        118.9530   123.7290    79.3110 cl         1 J33      -0.172000
     13 O1         128.2490   127.1300    81.0870 o          1 J33      -0.489000
     14 N1         125.1590   125.4820    80.3480 nh         1 J33      -0.806600
     15 N2         125.9700   127.3620    81.0560 ns         1 J33      -0.430400
     16 N3         123.5980   127.1800    80.8470 ne         1 J33      -0.685100
     17 H2         124.3320   123.6020    79.8310 h1         1 J33       0.056200
     18 H1         124.3830   124.7820    78.5060 h1         1 J33       0.056200
     19 H3         127.0350   124.5280    80.9360 h1         1 J33       0.086700
     20 H4         127.0430   125.2220    79.2720 h1         1 J33       0.086700
     21 H6         121.0290   127.7400    81.2040 ha         1 J33       0.138000
     22 H7         119.1010   126.2970    80.5670 ha         1 J33       0.134000
     23 H5         125.9680   128.2990    81.4190 hn         1 J33       0.368500
@<TRIPOS>BOND
     1     1     4 1   
     2     1    14 1   
     3     1    17 1   
     4     1    18 1   
     5     2     6 1   
     6     2    14 1   
     7     2    19 1   
     8     2    20 1   
     9     3    14 1   
    10     3    15 1   
    11     3    16 2   
    12     4     5 ar  
    13     4     7 ar  
    14     5     8 ar  
    15     5    16 1   
    16     6    13 2   
    17     6    15 1   
    18     7     9 ar  
    19     7    11 1   
    20     8    10 ar  
    21     8    21 1   
    22     9    10 ar  
    23     9    12 1   
    24    10    22 1   
    25    15    23 1   
@<TRIPOS>SUBSTRUCTURE
     1 J33         1 TEMP              0 ****  ****    0 ROOT
