@<TRIPOS>MOLECULE
J34
  186   188     1     0     0
SMALL
abcg2


@<TRIPOS>ATOM
      1 O23        -25.4330   -12.2230     3.5330 o          1 J34      -0.697100
      2 C12        -26.1420   -11.2630     3.8010 c          1 J34       0.649100
      3 N2         -25.6500   -10.1300     4.3740 ns         1 J34      -0.458900
      4 C11        -26.1080    -8.7710     4.1200 c3         1 J34       0.077000
      5 C10        -25.7060    -8.2210     2.7560 c3         1 J34      -0.105400
      6 C9         -26.2660    -6.8120     2.5180 c3         1 J34      -0.070400
      7 C8         -27.7500    -6.8100     2.1550 c3         1 J34      -0.096400
      8 C1         -28.3560    -5.4150     2.1110 c3         1 J34       0.005700
      9 N          -28.2070    -4.7480     3.3810 ns         1 J34      -0.500900
     10 C2         -28.7540    -5.2310     4.5310 c          1 J34       0.641100
     11 O6         -29.5980    -6.1240     4.5450 o          1 J34      -0.665100
     12 N1         -28.3290    -4.6020     5.6570 ns         1 J34      -0.497900
     13 C3         -28.4880    -5.1340     6.9980 c3         1 J34      -0.022300
     14 C7         -28.1670    -4.0050     8.0050 c          1 J34       0.723000
     15 O5         -27.2320    -3.2400     7.6860 o          1 J34      -0.757000
     16 O4         -28.7640    -4.0400     9.0960 o          1 J34      -0.757000
     17 C4         -27.5590    -6.3360     7.2350 c3         1 J34      -0.059400
     18 C5         -27.7250    -7.0210     8.5810 c3         1 J34      -0.188400
     19 C6         -26.9000    -8.3140     8.7620 c          1 J34       0.707000
     20 O3         -27.2950    -9.1030     9.6460 o          1 J34      -0.776000
     21 O2         -25.8470    -8.4310     8.0990 o          1 J34      -0.776000
     22 C          -29.8120    -5.3420     1.5420 c          1 J34       0.734000
     23 O1         -30.1650    -6.2790     0.7940 o          1 J34      -0.741000
     24 O          -30.4990    -4.3590     1.8600 o          1 J34      -0.741000
     25 N3         -27.4930   -11.3200     3.5430 ns         1 J34      -0.158000
     26 C13        -28.5560   -10.7850     4.2660 ca         1 J34      -0.047000
     27 C18        -29.7880   -10.6460     3.6080 ca         1 J34       0.044100
     28 C17        -30.8900   -10.1570     4.2840 ca         1 J34      -0.100000
     29 C16        -30.7860    -9.7960     5.6170 ca         1 J34      -0.116000
     30 C15        -29.5730    -9.9440     6.2760 ca         1 J34      -0.057000
     31 C14        -28.4690   -10.4480     5.6120 ca         1 J34      -0.124000
     32 O7         -29.8970   -11.0430     2.3070 os         1 J34      -0.397100
     33 C19        -29.5670   -10.0260     1.3680 c3         1 J34       0.123600
     34 C20        -29.5860   -10.6420    -0.0220 c3         1 J34       0.104000
     35 N4         -29.3340    -9.6360    -1.0270 ns         1 J34      -0.494900
     36 C21        -28.0940    -9.2130    -1.3250 c          1 J34       0.603100
     37 O22        -27.0890    -9.6900    -0.8120 o          1 J34      -0.615100
     38 C22        -28.0020    -8.0930    -2.3360 c3         1 J34      -0.154400
     39 C23        -27.7670    -6.7890    -1.5870 c3         1 J34       0.133600
     40 O8         -27.5590    -5.7350    -2.4930 os         1 J34      -0.488000
     41 C24        -27.3710    -4.5200    -1.8100 c3         1 J34       0.149600
     42 C25        -27.1290    -3.4120    -2.8140 c3         1 J34       0.162600
     43 O9         -26.9290    -2.2420    -2.0650 os         1 J34      -0.446000
     44 C26        -26.6900    -1.0950    -2.8340 c3         1 J34       0.168600
     45 C27        -26.5040     0.0440    -1.8530 c3         1 J34       0.148600
     46 O10        -26.2740     1.2240    -2.5750 os         1 J34      -0.473000
     47 C28        -26.0890     2.3210    -1.7210 c3         1 J34       0.158600
     48 C29        -25.8370     3.5540    -2.5620 c3         1 J34       0.160600
     49 O11        -25.6710     4.6190    -1.6670 os         1 J34      -0.461000
     50 C30        -25.4030     5.8510    -2.2820 c3         1 J34       0.165600
     51 C31        -25.2790     6.8780    -1.1730 c3         1 J34       0.154600
     52 O12        -24.9960     8.1270    -1.7500 os         1 J34      -0.468000
     53 C32        -24.8740     9.1390    -0.7840 c3         1 J34       0.159600
     54 C33        -24.5120    10.4300    -1.4900 c3         1 J34       0.159600
     55 O13        -24.4190    11.4210    -0.5040 os         1 J34      -0.463000
     56 C34        -24.0150    12.6680    -0.9990 c3         1 J34       0.163600
     57 C35        -23.9930    13.6290     0.1730 c3         1 J34       0.156600
     58 O14        -23.5490    14.8800    -0.2870 os         1 J34      -0.466000
     59 C36        -23.5350    15.8470     0.7340 c3         1 J34       0.159600
     60 C37        -22.9760    17.1390     0.1720 c3         1 J34       0.161600
     61 O15        -23.0090    18.0830     1.2090 os         1 J34      -0.467000
     62 C38        -22.4890    19.3380     0.8600 c3         1 J34       0.164600
     63 C39        -22.6550    20.2320     2.0720 c3         1 J34       0.156600
     64 O16        -22.1250    21.4970     1.7720 os         1 J34      -0.463000
     65 C40        -22.2880    22.3950     2.8380 c3         1 J34       0.157600
     66 C41        -21.6550    23.7190     2.4580 c3         1 J34       0.161600
     67 O17        -21.8670    24.5930     3.5340 os         1 J34      -0.467000
     68 C42        -21.3050    25.8670     3.3560 c3         1 J34       0.163600
     69 C43        -21.6540    26.6800     4.5870 c3         1 J34       0.157600
     70 O18        -21.0740    27.9520     4.4610 os         1 J34      -0.464000
     71 C44        -21.3750    28.7860     5.5490 c3         1 J34       0.159600
     72 C45        -20.6440    30.0990     5.3560 c3         1 J34       0.159600
     73 O19        -20.9770    30.9260     6.4400 os         1 J34      -0.462000
     74 C46        -20.3240    32.1670     6.4120 c3         1 J34       0.141600
     75 C47        -20.7990    32.9720     7.6130 c3         1 J34       0.101000
     76 N5         -20.1310    34.2460     7.7020 ns         1 J34      -0.510900
     77 C48        -20.5280    35.3440     7.0360 c          1 J34       0.597100
     78 O21        -21.5100    35.3500     6.3100 o          1 J34      -0.597100
     79 C49        -19.6920    36.5850     7.2720 c3         1 J34      -0.157400
     80 C50        -19.4560    37.3950     6.0030 c3         1 J34      -0.066400
     81 C51        -18.6220    38.6410     6.2670 c3         1 J34      -0.078400
     82 C52        -18.3700    39.4360     4.9930 c3         1 J34      -0.059400
     83 C53        -17.4580    40.6330     5.1890 c5         1 J34       0.072300
     84 C56        -17.0990    41.3810     3.8990 c5         1 J34       0.096700
     85 C55        -16.6290    42.8170     4.2740 c5         1 J34       0.102700
     86 C54        -16.8470    43.0320     5.7780 c5         1 J34       0.027600
     87 S          -18.1810    41.9100     6.2700 ss         1 J34      -0.403000
     88 N7         -18.2380    41.6330     3.0520 ns         1 J34      -0.510900
     89 C57        -18.4190    42.9530     2.7640 c          1 J34       0.613000
     90 O20        -19.2710    43.4230     2.0280 o          1 J34      -0.574000
     91 N6         -17.4650    43.6420     3.4420 ns         1 J34      -0.522900
     92 H22        -24.6570   -10.2020     4.5410 hn         1 J34       0.295500
     93 H20        -27.1820    -8.7040     4.2520 h1         1 J34       0.093200
     94 H21        -25.6800    -8.1460     4.9040 h1         1 J34       0.093200
     95 H18        -24.6150    -8.2060     2.6940 hc         1 J34       0.026200
     96 H19        -26.0540    -8.8980     1.9680 hc         1 J34       0.026200
     97 H16        -26.0820    -6.2060     3.4140 hc         1 J34       0.024700
     98 H17        -25.7040    -6.3270     1.7150 hc         1 J34       0.024700
     99 H14        -27.8660    -7.2670     1.1790 hc         1 J34       0.055200
    100 H15        -28.3350    -7.4350     2.8570 hc         1 J34       0.055200
    101 H          -27.7460    -4.8170     1.4140 h1         1 J34      -0.009300
    102 H6         -27.4060    -4.1460     3.4720 hn         1 J34       0.267500
    103 H7         -27.5750    -3.9340     5.5920 hn         1 J34       0.301500
    104 H1         -29.5230    -5.4520     7.1360 h1         1 J34       0.053700
    105 H8         -27.7420    -7.0650     6.4470 hc         1 J34       0.023200
    106 H9         -26.5270    -6.0060     7.0980 hc         1 J34       0.023200
    107 H10        -27.4420    -6.3300     9.3860 hc         1 J34       0.030200
    108 H11        -28.7810    -7.2460     8.7560 hc         1 J34       0.030200
    109 H23        -27.7400   -12.0890     2.9370 hn         1 J34       0.146000
    110 H27        -31.8290   -10.0530     3.7530 ha         1 J34       0.105000
    111 H26        -31.6500    -9.4100     6.1410 ha         1 J34       0.108000
    112 H25        -29.4840    -9.6940     7.3240 ha         1 J34       0.151000
    113 H24        -27.5310   -10.5610     6.1410 ha         1 J34       0.158000
    114 H28        -30.2810    -9.2030     1.4330 h1         1 J34       0.075200
    115 H29        -28.5780    -9.6160     1.5790 h1         1 J34       0.075200
    116 H30        -28.8300   -11.4240    -0.0930 h1         1 J34       0.042700
    117 H31        -30.5560   -11.0950    -0.2260 h1         1 J34       0.042700
    118 H32        -30.1250    -9.1510    -1.4220 hn         1 J34       0.320500
    119 H33        -27.1640    -8.3050    -3.0010 hc         1 J34       0.048200
    120 H34        -28.9080    -8.0180    -2.9410 hc         1 J34       0.048200
    121 H35        -28.6400    -6.5850    -0.9500 h1         1 J34       0.080700
    122 H36        -26.9010    -6.8970    -0.9180 h1         1 J34       0.080700
    123 H37        -28.2510    -4.2870    -1.1930 h1         1 J34       0.061200
    124 H38        -26.5140    -4.5900    -1.1240 h1         1 J34       0.061200
    125 H39        -26.2530    -3.6520    -3.4320 h1         1 J34       0.019200
    126 H40        -27.9930    -3.3150    -3.4860 h1         1 J34       0.019200
    127 H41        -25.8000    -1.2160    -3.4660 h1         1 J34       0.019700
    128 H42        -27.5380    -0.8810    -3.5010 h1         1 J34       0.019700
    129 H43        -27.4050     0.1330    -1.2320 h1         1 J34       0.049700
    130 H44        -25.6640    -0.1750    -1.1800 h1         1 J34       0.049700
    131 H45        -26.9770     2.4710    -1.0910 h1         1 J34       0.041200
    132 H46        -25.2390     2.1540    -1.0460 h1         1 J34       0.041200
    133 H47        -24.9460     3.4060    -3.1880 h1         1 J34       0.029700
    134 H48        -26.6870     3.7280    -3.2380 h1         1 J34       0.029700
    135 H49        -24.4790     5.8080    -2.8760 h1         1 J34       0.028700
    136 H50        -26.2130     6.1360    -2.9690 h1         1 J34       0.028700
    137 H51        -26.2220     6.9110    -0.6090 h1         1 J34       0.041700
    138 H52        -24.4870     6.5760    -0.4740 h1         1 J34       0.041700
    139 H53        -25.8190     9.2620    -0.2350 h1         1 J34       0.038200
    140 H54        -24.0960     8.8900    -0.0500 h1         1 J34       0.038200
    141 H55        -23.5640    10.3050    -2.0300 h1         1 J34       0.033700
    142 H56        -25.2780    10.6830    -2.2350 h1         1 J34       0.033700
    143 H57        -23.0240    12.6070    -1.4690 h1         1 J34       0.031700
    144 H58        -24.7090    13.0290    -1.7690 h1         1 J34       0.031700
    145 H59        -25.0050    13.7040     0.5990 h1         1 J34       0.039200
    146 H60        -23.3310    13.2390     0.9610 h1         1 J34       0.039200
    147 H61        -24.5530    16.0150     1.1160 h1         1 J34       0.037200
    148 H62        -22.9190    15.5140     1.5820 h1         1 J34       0.037200
    149 H63        -21.9540    16.9760    -0.1960 h1         1 J34       0.034700
    150 H64        -23.5780    17.4730    -0.6840 h1         1 J34       0.034700
    151 H65        -21.4300    19.2670     0.5760 h1         1 J34       0.033700
    152 H66        -23.0270    19.7650     0.0030 h1         1 J34       0.033700
    153 H67        -23.7220    20.3070     2.3270 h1         1 J34       0.037700
    154 H68        -22.1440    19.7870     2.9380 h1         1 J34       0.037700
    155 H69        -23.3550    22.5400     3.0610 h1         1 J34       0.036200
    156 H70        -21.8170    22.0100     3.7530 h1         1 J34       0.036200
    157 H71        -20.5840    23.5780     2.2570 h1         1 J34       0.035700
    158 H72        -22.1140    24.1050     1.5370 h1         1 J34       0.035700
    159 H73        -20.2140    25.8060     3.2340 h1         1 J34       0.034700
    160 H74        -21.7070    26.3560     2.4580 h1         1 J34       0.034700
    161 H75        -22.7470    26.7530     4.6820 h1         1 J34       0.036700
    162 H76        -21.2870    26.1700     5.4890 h1         1 J34       0.036700
    163 H77        -22.4580    28.9600     5.6190 h1         1 J34       0.036200
    164 H78        -21.0640    28.3240     6.4960 h1         1 J34       0.036200
    165 H79        -19.5620    29.9170     5.3100 h1         1 J34       0.035700
    166 H80        -20.9410    30.5570     4.4020 h1         1 J34       0.035700
    167 H81        -19.2330    32.0400     6.4540 h1         1 J34       0.029700
    168 H82        -20.5530    32.7100     5.4860 h1         1 J34       0.029700
    169 H83        -21.8780    33.1270     7.5540 h1         1 J34       0.066700
    170 H84        -20.5990    32.4210     8.5320 h1         1 J34       0.066700
    171 H85        -19.2880    34.2940     8.2500 hn         1 J34       0.311500
    172 H86        -20.2210    37.1990     8.0080 hc         1 J34       0.055700
    173 H87        -18.7350    36.3220     7.7300 hc         1 J34       0.055700
    174 H88        -18.9490    36.7710     5.2610 hc         1 J34       0.054700
    175 H89        -20.4140    37.6820     5.5640 hc         1 J34       0.054700
    176 H90        -19.1310    39.2640     7.0090 hc         1 J34       0.045200
    177 H91        -17.6640    38.3560     6.7120 hc         1 J34       0.045200
    178 H92        -17.9040    38.7770     4.2520 hc         1 J34       0.055200
    179 H93        -19.3220    39.7630     4.5650 hc         1 J34       0.055200
    180 H2         -16.5210    40.3020     5.6510 h1         1 J34       0.067700
    181 H4         -16.3220    40.8260     3.3650 h1         1 J34       0.062700
    182 H3         -15.5730    42.9690     4.0390 h1         1 J34       0.069700
    183 H95        -15.9380    42.7830     6.3280 h1         1 J34       0.076700
    184 H94        -17.1130    44.0630     6.0110 h1         1 J34       0.076700
    185 H97        -18.6080    40.9270     2.4370 hn         1 J34       0.337500
    186 H96        -17.5100    44.6420     3.5420 hn         1 J34       0.339500
@<TRIPOS>BOND
     1     1     2 2   
     2     2     3 1   
     3     2    25 1   
     4     3     4 1   
     5     3    92 1   
     6     4     5 1   
     7     4    93 1   
     8     4    94 1   
     9     5     6 1   
    10     5    95 1   
    11     5    96 1   
    12     6     7 1   
    13     6    97 1   
    14     6    98 1   
    15     7     8 1   
    16     7    99 1   
    17     7   100 1   
    18     8     9 1   
    19     8    22 1   
    20     8   101 1   
    21     9    10 1   
    22     9   102 1   
    23    10    11 2   
    24    10    12 1   
    25    12    13 1   
    26    12   103 1   
    27    13    14 1   
    28    13    17 1   
    29    13   104 1   
    30    14    15 1   
    31    14    16 1   
    32    17    18 1   
    33    17   105 1   
    34    17   106 1   
    35    18    19 1   
    36    18   107 1   
    37    18   108 1   
    38    19    20 1   
    39    19    21 1   
    40    22    23 1   
    41    22    24 1   
    42    25    26 1   
    43    25   109 1   
    44    26    27 ar  
    45    26    31 ar  
    46    27    28 ar  
    47    27    32 1   
    48    28    29 ar  
    49    28   110 1   
    50    29    30 ar  
    51    29   111 1   
    52    30    31 ar  
    53    30   112 1   
    54    31   113 1   
    55    32    33 1   
    56    33    34 1   
    57    33   114 1   
    58    33   115 1   
    59    34    35 1   
    60    34   116 1   
    61    34   117 1   
    62    35    36 1   
    63    35   118 1   
    64    36    37 2   
    65    36    38 1   
    66    38    39 1   
    67    38   119 1   
    68    38   120 1   
    69    39    40 1   
    70    39   121 1   
    71    39   122 1   
    72    40    41 1   
    73    41    42 1   
    74    41   123 1   
    75    41   124 1   
    76    42    43 1   
    77    42   125 1   
    78    42   126 1   
    79    43    44 1   
    80    44    45 1   
    81    44   127 1   
    82    44   128 1   
    83    45    46 1   
    84    45   129 1   
    85    45   130 1   
    86    46    47 1   
    87    47    48 1   
    88    47   131 1   
    89    47   132 1   
    90    48    49 1   
    91    48   133 1   
    92    48   134 1   
    93    49    50 1   
    94    50    51 1   
    95    50   135 1   
    96    50   136 1   
    97    51    52 1   
    98    51   137 1   
    99    51   138 1   
   100    52    53 1   
   101    53    54 1   
   102    53   139 1   
   103    53   140 1   
   104    54    55 1   
   105    54   141 1   
   106    54   142 1   
   107    55    56 1   
   108    56    57 1   
   109    56   143 1   
   110    56   144 1   
   111    57    58 1   
   112    57   145 1   
   113    57   146 1   
   114    58    59 1   
   115    59    60 1   
   116    59   147 1   
   117    59   148 1   
   118    60    61 1   
   119    60   149 1   
   120    60   150 1   
   121    61    62 1   
   122    62    63 1   
   123    62   151 1   
   124    62   152 1   
   125    63    64 1   
   126    63   153 1   
   127    63   154 1   
   128    64    65 1   
   129    65    66 1   
   130    65   155 1   
   131    65   156 1   
   132    66    67 1   
   133    66   157 1   
   134    66   158 1   
   135    67    68 1   
   136    68    69 1   
   137    68   159 1   
   138    68   160 1   
   139    69    70 1   
   140    69   161 1   
   141    69   162 1   
   142    70    71 1   
   143    71    72 1   
   144    71   163 1   
   145    71   164 1   
   146    72    73 1   
   147    72   165 1   
   148    72   166 1   
   149    73    74 1   
   150    74    75 1   
   151    74   167 1   
   152    74   168 1   
   153    75    76 1   
   154    75   169 1   
   155    75   170 1   
   156    76    77 1   
   157    76   171 1   
   158    77    78 2   
   159    77    79 1   
   160    79    80 1   
   161    79   172 1   
   162    79   173 1   
   163    80    81 1   
   164    80   174 1   
   165    80   175 1   
   166    81    82 1   
   167    81   176 1   
   168    81   177 1   
   169    82    83 1   
   170    82   178 1   
   171    82   179 1   
   172    83    84 1   
   173    83    87 1   
   174    83   180 1   
   175    84    85 1   
   176    84    88 1   
   177    84   181 1   
   178    85    86 1   
   179    85    91 1   
   180    85   182 1   
   181    86    87 1   
   182    86   183 1   
   183    86   184 1   
   184    88    89 1   
   185    88   185 1   
   186    89    90 2   
   187    89    91 1   
   188    91   186 1   
@<TRIPOS>SUBSTRUCTURE
     1 J34         1 TEMP              0 ****  ****    0 ROOT
