@<TRIPOS>MOLECULE
J34
  186   188     1     0     0
SMALL
No Charge or Current Charge


@<TRIPOS>ATOM
      1 O23        -25.2020   -13.7490     0.9260 o          1 J34      -0.697100
      2 C12        -26.0770   -13.0670     1.4380 c          1 J34       0.649100
      3 N2         -25.7430   -12.1630     2.4270 ns         1 J34      -0.458900
      4 C11        -26.4080   -10.8750     2.6900 c3         1 J34       0.077000
      5 C10        -25.8840    -9.7850     1.7290 c3         1 J34      -0.105400
      6 C9         -26.5020    -8.3870     1.9560 c3         1 J34      -0.070400
      7 C8         -27.9860    -8.2740     1.5310 c3         1 J34      -0.096400
      8 C1         -28.5780    -6.8440     1.7020 c3         1 J34       0.005700
      9 N          -28.5120    -6.3740     3.1070 ns         1 J34      -0.500900
     10 C2         -29.2180    -6.9030     4.1580 c          1 J34       0.641100
     11 O6         -30.0260    -7.8110     4.0550 o          1 J34      -0.665100
     12 N1         -28.9150    -6.2840     5.3420 ns         1 J34      -0.497900
     13 C3         -29.4730    -6.6480     6.6670 c3         1 J34      -0.022300
     14 C7         -29.4350    -5.4140     7.6310 c          1 J34       0.723000
     15 O5         -28.3770    -4.8140     7.7750 o          1 J34      -0.757000
     16 O4         -30.4900    -5.0180     8.1090 o          1 J34      -0.757000
     17 C4         -28.7550    -7.8920     7.2570 c3         1 J34      -0.059400
     18 C5         -29.3670    -8.4060     8.5850 c3         1 J34      -0.188400
     19 C6         -28.6330    -9.6730     9.0620 c          1 J34       0.707000
     20 O3         -29.0380   -10.7580     8.6770 o          1 J34      -0.776000
     21 O2         -27.6540    -9.5390     9.7800 o          1 J34      -0.776000
     22 C          -30.0220    -6.6560     1.0920 c          1 J34       0.734000
     23 O1         -30.5820    -7.6060     0.5600 o          1 J34      -0.741000
     24 O          -30.5070    -5.5300     1.1010 o          1 J34      -0.741000
     25 N3         -27.4020   -13.1760     1.0390 ns         1 J34      -0.158000
     26 C13        -28.6150   -12.9760     1.7520 ca         1 J34      -0.047000
     27 C18        -29.7840   -12.5940     1.0610 ca         1 J34       0.044100
     28 C17        -31.0030   -12.4530     1.7460 ca         1 J34      -0.100000
     29 C16        -31.0640   -12.6930     3.1290 ca         1 J34      -0.116000
     30 C15        -29.9070   -13.0820     3.8250 ca         1 J34      -0.057000
     31 C14        -28.6880   -13.2310     3.1390 ca         1 J34      -0.124000
     32 O7         -29.7420   -12.3120    -0.2820 os         1 J34      -0.397100
     33 C19        -29.2250   -11.0320    -0.6860 c3         1 J34       0.123600
     34 C20        -29.2590   -10.9440    -2.2260 c3         1 J34       0.104000
     35 N4         -28.8410    -9.6250    -2.7180 ns         1 J34      -0.494900
     36 C21        -27.5670    -9.1160    -2.6050 c          1 J34       0.603100
     37 O22        -26.6350    -9.7780    -2.1720 o          1 J34      -0.615100
     38 C22        -27.3950    -7.6760    -3.0790 c3         1 J34      -0.154400
     39 C23        -27.2860    -6.7410    -1.8640 c3         1 J34       0.133600
     40 O8         -27.0850    -5.4070    -2.3590 os         1 J34      -0.488000
     41 C24        -26.9850    -4.3980    -1.3320 c3         1 J34       0.149600
     42 C25        -26.7530    -3.0330    -2.0130 c3         1 J34       0.162600
     43 O9         -26.6360    -2.0310    -0.9870 os         1 J34      -0.446000
     44 C26        -26.4080    -0.6990    -1.4810 c3         1 J34       0.168600
     45 C27        -26.3040     0.2550    -0.2720 c3         1 J34       0.148600
     46 O10        -26.0630     1.5890    -0.7640 os         1 J34      -0.473000
     47 C28        -25.9440     2.5930     0.2630 c3         1 J34       0.158600
     48 C29        -25.6830     3.9540    -0.4160 c3         1 J34       0.160600
     49 O11        -25.5610     4.9570     0.6100 os         1 J34      -0.461000
     50 C30        -25.3080     6.2860     0.1150 c3         1 J34       0.165600
     51 C31        -25.2030     7.2420     1.3230 c3         1 J34       0.154600
     52 O12        -24.9370     8.5690     0.8290 os         1 J34      -0.468000
     53 C32        -24.8120     9.5740     1.8540 c3         1 J34       0.159600
     54 C33        -24.5220    10.9290     1.1740 c3         1 J34       0.159600
     55 O13        -24.3930    11.9330     2.1980 os         1 J34      -0.463000
     56 C34        -24.1120    13.2560     1.7030 c3         1 J34       0.163600
     57 C35        -24.0020    14.2130     2.9100 c3         1 J34       0.156600
     58 O14        -23.7060    15.5330     2.4160 os         1 J34      -0.466000
     59 C36        -23.5730    16.5380     3.4400 c3         1 J34       0.159600
     60 C37        -23.2500    17.8860     2.7590 c3         1 J34       0.161600
     61 O15        -23.1170    18.8900     3.7830 os         1 J34      -0.467000
     62 C38        -22.8050    20.2070     3.2880 c3         1 J34       0.164600
     63 C39        -22.6940    21.1650     4.4940 c3         1 J34       0.156600
     64 O16        -22.3680    22.4790     4.0000 os         1 J34      -0.463000
     65 C40        -22.2310    23.4840     5.0230 c3         1 J34       0.157600
     66 C41        -21.8750    24.8230     4.3430 c3         1 J34       0.161600
     67 O17        -21.7340    25.8280     5.3660 os         1 J34      -0.467000
     68 C42        -21.3910    27.1370     4.8720 c3         1 J34       0.163600
     69 C43        -21.2760    28.0960     6.0760 c3         1 J34       0.157600
     70 O18        -20.9190    29.4020     5.5840 os         1 J34      -0.464000
     71 C44        -20.7750    30.4060     6.6060 c3         1 J34       0.159600
     72 C45        -20.3870    31.7380     5.9280 c3         1 J34       0.159600
     73 O19        -20.2390    32.7410     6.9510 os         1 J34      -0.462000
     74 C46        -19.8690    34.0410     6.4590 c3         1 J34       0.141600
     75 C47        -19.7530    34.9940     7.6690 c3         1 J34       0.101000
     76 N5         -19.3150    36.3470     7.2950 ns         1 J34      -0.510900
     77 C48        -20.0890    37.2640     6.6210 c          1 J34       0.597100
     78 O21        -21.2500    37.0370     6.3100 o          1 J34      -0.597100
     79 C49        -19.4030    38.6020     6.3250 c3         1 J34      -0.157400
     80 C50        -19.0400    38.7350     4.8270 c3         1 J34      -0.066400
     81 C51        -18.3390    40.0700     4.4930 c3         1 J34      -0.078400
     82 C52        -17.9750    40.2050     2.9950 c3         1 J34      -0.059400
     83 C53        -17.2320    41.5190     2.6350 c5         1 J34       0.072300
     84 C56        -16.6620    41.6170     1.1720 c5         1 J34       0.096700
     85 C55        -16.4440    43.1510     0.8360 c5         1 J34       0.102700
     86 C54        -17.0000    44.0060     2.0240 c5         1 J34       0.027600
     87 S          -18.3260    42.9990     2.8320 ss         1 J34      -0.403000
     88 N7         -17.7430    41.2490     0.2500 ns         1 J34      -0.510900
     89 C57        -18.1400    42.2740    -0.5370 c          1 J34       0.613000
     90 O20        -19.0170    42.2180    -1.3770 o          1 J34      -0.574000
     91 N6         -17.3940    43.3680    -0.2590 ns         1 J34      -0.522900
     92 H22        -24.7810   -12.2350     2.7310 hn         1 J34       0.295500
     93 H20        -27.4950   -10.9550     2.5930 h1         1 J34       0.093200
     94 H21        -26.1950   -10.5780     3.7260 h1         1 J34       0.093200
     95 H18        -24.7970    -9.7070     1.8530 hc         1 J34       0.026200
     96 H19        -26.0600   -10.0950     0.6920 hc         1 J34       0.026200
     97 H16        -26.3930    -8.1170     3.0130 hc         1 J34       0.024700
     98 H17        -25.9190    -7.6550     1.3830 hc         1 J34       0.024700
     99 H14        -28.0620    -8.5590     0.4760 hc         1 J34       0.055200
    100 H15        -28.5940    -8.9910     2.0950 hc         1 J34       0.055200
    101 H          -27.9270    -6.1680     1.1320 h1         1 J34      -0.009300
    102 H6         -27.8870    -5.6080     3.3190 hn         1 J34       0.267500
    103 H7         -28.2360    -5.5340     5.3080 hn         1 J34       0.301500
    104 H1         -30.5310    -6.9040     6.5220 h1         1 J34       0.053700
    105 H8         -28.7880    -8.7040     6.5200 hc         1 J34       0.023200
    106 H9         -27.6950    -7.6560     7.4150 hc         1 J34       0.023200
    107 H10        -29.2360    -7.5990     9.3150 hc         1 J34       0.030200
    108 H11        -30.4160    -8.6360     8.3630 hc         1 J34       0.030200
    109 H23        -27.5290   -13.6810     0.1720 hn         1 J34       0.146000
    110 H27        -31.8960   -12.1480     1.2080 ha         1 J34       0.105000
    111 H26        -32.0060   -12.5800     3.6600 ha         1 J34       0.108000
    112 H25        -29.9560   -13.2750     4.8960 ha         1 J34       0.151000
    113 H24        -27.8060   -13.5540     3.6890 ha         1 J34       0.158000
    114 H28        -29.8350   -10.2230    -0.2640 h1         1 J34       0.075200
    115 H29        -28.1940   -10.9010    -0.3340 h1         1 J34       0.075200
    116 H30        -28.5990   -11.7090    -2.6540 h1         1 J34       0.042700
    117 H31        -30.2810   -11.1360    -2.5780 h1         1 J34       0.042700
    118 H32        -29.5460    -9.0090    -3.1060 hn         1 J34       0.320500
    119 H33        -26.4720    -7.5970    -3.6640 hc         1 J34       0.048200
    120 H34        -28.2580    -7.3640    -3.6810 hc         1 J34       0.048200
    121 H35        -28.2110    -6.8030    -1.2730 h1         1 J34       0.080700
    122 H36        -26.4470    -7.0550    -1.2260 h1         1 J34       0.080700
    123 H37        -27.9070    -4.3530    -0.7370 h1         1 J34       0.061200
    124 H38        -26.1460    -4.6110    -0.6560 h1         1 J34       0.061200
    125 H39        -25.8360    -3.0760    -2.6150 h1         1 J34       0.019200
    126 H40        -27.5980    -2.8070    -2.6770 h1         1 J34       0.019200
    127 H41        -25.4750    -0.6570    -2.0590 h1         1 J34       0.019700
    128 H42        -27.2360    -0.3800    -2.1280 h1         1 J34       0.019700
    129 H43        -27.2400     0.2150     0.3010 h1         1 J34       0.049700
    130 H44        -25.4830    -0.0740     0.3790 h1         1 J34       0.049700
    131 H45        -26.8670     2.6540     0.8560 h1         1 J34       0.041200
    132 H46        -25.1100     2.3590     0.9390 h1         1 J34       0.041200
    133 H47        -24.7600     3.8940    -1.0090 h1         1 J34       0.029700
    134 H48        -26.5160     4.1900    -1.0910 h1         1 J34       0.029700
    135 H49        -24.3700     6.3140    -0.4540 h1         1 J34       0.028700
    136 H50        -26.1240     6.6170    -0.5410 h1         1 J34       0.028700
    137 H51        -26.1450     7.2190     1.8870 h1         1 J34       0.041700
    138 H52        -24.3930     6.9040     1.9830 h1         1 J34       0.041700
    139 H53        -25.7390     9.6510     2.4370 h1         1 J34       0.038200
    140 H54        -23.9890     9.3290     2.5390 h1         1 J34       0.038200
    141 H55        -23.5960    10.8510     0.5890 h1         1 J34       0.033700
    142 H56        -25.3460    11.1760     0.4910 h1         1 J34       0.033700
    143 H57        -23.1680    13.2670     1.1430 h1         1 J34       0.031700
    144 H58        -24.9160    13.6000     1.0390 h1         1 J34       0.031700
    145 H59        -24.9500    14.2090     3.4640 h1         1 J34       0.039200
    146 H60        -23.2050    13.8620     3.5790 h1         1 J34       0.039200
    147 H61        -24.5060    16.6340     4.0120 h1         1 J34       0.037200
    148 H62        -22.7630    16.2790     4.1340 h1         1 J34       0.037200
    149 H63        -22.3180    17.7890     2.1880 h1         1 J34       0.034700
    150 H64        -24.0600    18.1460     2.0650 h1         1 J34       0.034700
    151 H65        -21.8530    20.1990     2.7420 h1         1 J34       0.033700
    152 H66        -23.5930    20.5630     2.6120 h1         1 J34       0.033700
    153 H67        -23.6490    21.1800     5.0350 h1         1 J34       0.037700
    154 H68        -21.9130    20.8030     5.1750 h1         1 J34       0.037700
    155 H69        -23.1690    23.5980     5.5820 h1         1 J34       0.036200
    156 H70        -21.4340    23.2120     5.7280 h1         1 J34       0.036200
    157 H71        -20.9380    24.7080     3.7820 h1         1 J34       0.035700
    158 H72        -22.6720    25.0970     3.6390 h1         1 J34       0.035700
    159 H73        -20.4330    27.1100     4.3360 h1         1 J34       0.034700
    160 H74        -22.1650    27.5070     4.1860 h1         1 J34       0.034700
    161 H75        -22.2360    28.1300     6.6070 h1         1 J34       0.036700
    162 H76        -20.5090    27.7200     6.7670 h1         1 J34       0.036700
    163 H77        -21.7170    30.5390     7.1550 h1         1 J34       0.036200
    164 H78        -19.9910    30.1210     7.3210 h1         1 J34       0.036200
    165 H79        -19.4470    31.6040     5.3770 h1         1 J34       0.035700
    166 H80        -21.1720    32.0240     5.2150 h1         1 J34       0.035700
    167 H81        -18.9050    33.9970     5.9360 h1         1 J34       0.029700
    168 H82        -20.6260    34.4210     5.7600 h1         1 J34       0.029700
    169 H83        -20.7260    35.0610     8.1730 h1         1 J34       0.066700
    170 H84        -19.0300    34.5790     8.3830 h1         1 J34       0.066700
    171 H85        -18.3680    36.6300     7.5230 hn         1 J34       0.311500
    172 H86        -20.0900    39.4150     6.5900 hc         1 J34       0.055700
    173 H87        -18.4820    38.6890     6.9140 hc         1 J34       0.055700
    174 H88        -18.3870    37.9010     4.5400 hc         1 J34       0.054700
    175 H89        -19.9540    38.6460     4.2250 hc         1 J34       0.054700
    176 H90        -18.9950    40.9000     4.7850 hc         1 J34       0.045200
    177 H91        -17.4250    40.1580     5.0940 hc         1 J34       0.045200
    178 H92        -17.3440    39.3520     2.7150 hc         1 J34       0.055200
    179 H93        -18.8950    40.1180     2.4040 hc         1 J34       0.055200
    180 H2         -16.3970    41.6300     3.3400 h1         1 J34       0.067700
    181 H4         -15.7570    41.0120     1.0230 h1         1 J34       0.062700
    182 H3         -15.4090    43.4020     0.5650 h1         1 J34       0.069700
    183 H95        -16.2070    44.1920     2.7610 h1         1 J34       0.076700
    184 H94        -17.3870    44.9820     1.7010 h1         1 J34       0.076700
    185 H97        -18.1960    40.3480     0.1640 hn         1 J34       0.337500
    186 H96        -17.5650    44.2300    -0.7610 hn         1 J34       0.339500
@<TRIPOS>BOND
     1     1     2 2   
     2     2     3 1   
     3     2    25 1   
     4     3     4 1   
     5     3    92 1   
     6     4     5 1   
     7     4    93 1   
     8     4    94 1   
     9     5     6 1   
    10     5    95 1   
    11     5    96 1   
    12     6     7 1   
    13     6    97 1   
    14     6    98 1   
    15     7     8 1   
    16     7    99 1   
    17     7   100 1   
    18     8     9 1   
    19     8    22 1   
    20     8   101 1   
    21     9    10 1   
    22     9   102 1   
    23    10    11 2   
    24    10    12 1   
    25    12    13 1   
    26    12   103 1   
    27    13    14 1   
    28    13    17 1   
    29    13   104 1   
    30    14    15 1   
    31    14    16 1   
    32    17    18 1   
    33    17   105 1   
    34    17   106 1   
    35    18    19 1   
    36    18   107 1   
    37    18   108 1   
    38    19    20 1   
    39    19    21 1   
    40    22    23 1   
    41    22    24 1   
    42    25    26 1   
    43    25   109 1   
    44    26    27 ar  
    45    26    31 ar  
    46    27    28 ar  
    47    27    32 1   
    48    28    29 ar  
    49    28   110 1   
    50    29    30 ar  
    51    29   111 1   
    52    30    31 ar  
    53    30   112 1   
    54    31   113 1   
    55    32    33 1   
    56    33    34 1   
    57    33   114 1   
    58    33   115 1   
    59    34    35 1   
    60    34   116 1   
    61    34   117 1   
    62    35    36 1   
    63    35   118 1   
    64    36    37 2   
    65    36    38 1   
    66    38    39 1   
    67    38   119 1   
    68    38   120 1   
    69    39    40 1   
    70    39   121 1   
    71    39   122 1   
    72    40    41 1   
    73    41    42 1   
    74    41   123 1   
    75    41   124 1   
    76    42    43 1   
    77    42   125 1   
    78    42   126 1   
    79    43    44 1   
    80    44    45 1   
    81    44   127 1   
    82    44   128 1   
    83    45    46 1   
    84    45   129 1   
    85    45   130 1   
    86    46    47 1   
    87    47    48 1   
    88    47   131 1   
    89    47   132 1   
    90    48    49 1   
    91    48   133 1   
    92    48   134 1   
    93    49    50 1   
    94    50    51 1   
    95    50   135 1   
    96    50   136 1   
    97    51    52 1   
    98    51   137 1   
    99    51   138 1   
   100    52    53 1   
   101    53    54 1   
   102    53   139 1   
   103    53   140 1   
   104    54    55 1   
   105    54   141 1   
   106    54   142 1   
   107    55    56 1   
   108    56    57 1   
   109    56   143 1   
   110    56   144 1   
   111    57    58 1   
   112    57   145 1   
   113    57   146 1   
   114    58    59 1   
   115    59    60 1   
   116    59   147 1   
   117    59   148 1   
   118    60    61 1   
   119    60   149 1   
   120    60   150 1   
   121    61    62 1   
   122    62    63 1   
   123    62   151 1   
   124    62   152 1   
   125    63    64 1   
   126    63   153 1   
   127    63   154 1   
   128    64    65 1   
   129    65    66 1   
   130    65   155 1   
   131    65   156 1   
   132    66    67 1   
   133    66   157 1   
   134    66   158 1   
   135    67    68 1   
   136    68    69 1   
   137    68   159 1   
   138    68   160 1   
   139    69    70 1   
   140    69   161 1   
   141    69   162 1   
   142    70    71 1   
   143    71    72 1   
   144    71   163 1   
   145    71   164 1   
   146    72    73 1   
   147    72   165 1   
   148    72   166 1   
   149    73    74 1   
   150    74    75 1   
   151    74   167 1   
   152    74   168 1   
   153    75    76 1   
   154    75   169 1   
   155    75   170 1   
   156    76    77 1   
   157    76   171 1   
   158    77    78 2   
   159    77    79 1   
   160    79    80 1   
   161    79   172 1   
   162    79   173 1   
   163    80    81 1   
   164    80   174 1   
   165    80   175 1   
   166    81    82 1   
   167    81   176 1   
   168    81   177 1   
   169    82    83 1   
   170    82   178 1   
   171    82   179 1   
   172    83    84 1   
   173    83    87 1   
   174    83   180 1   
   175    84    85 1   
   176    84    88 1   
   177    84   181 1   
   178    85    86 1   
   179    85    91 1   
   180    85   182 1   
   181    86    87 1   
   182    86   183 1   
   183    86   184 1   
   184    88    89 1   
   185    88   185 1   
   186    89    90 2   
   187    89    91 1   
   188    91   186 1   
@<TRIPOS>SUBSTRUCTURE
     1 J34         1 TEMP              0 ****  ****    0 ROOT
