@<TRIPOS>MOLECULE
J35
   53    54     1     0     0
SMALL
No Charge or Current Charge


@<TRIPOS>ATOM
      1 O2           6.3450     0.7960    -0.9670 o          1 J35      -0.735000
      2 C19          6.2400     0.2420     0.1180 c          1 J35       0.716000
      3 O3           6.8350     0.6150     1.1190 o          1 J35      -0.735000
      4 C20          5.3220    -1.0010     0.2160 c3         1 J35      -0.192700
      5 C21          6.1180    -2.2850     0.5810 c3         1 J35      -0.044400
      6 C18          7.2330    -2.6450    -0.4280 c3         1 J35      -0.074400
      7 C22          7.9700    -3.9500    -0.0720 c3         1 J35      -0.085100
      8 C17          4.1520    -0.7570     1.2050 c3         1 J35      -0.006100
      9 C15          3.2340     0.3790     0.7680 ca         1 J35      -0.070300
     10 C14          3.3340     1.6470     1.3660 ca         1 J35      -0.034000
     11 C13          2.4820     2.6910     0.9650 ca         1 J35      -0.201000
     12 C11          1.5190     2.4750    -0.0450 ca         1 J35       0.134100
     13 O4           0.6600     3.4760    -0.4600 os         1 J35      -0.347100
     14 C8           0.6850     4.7980     0.1050 c3         1 J35       0.153900
     15 C12          2.2750     0.1640    -0.2390 ca         1 J35      -0.065000
     16 C10          1.4180     1.2040    -0.6510 ca         1 J35      -0.170300
     17 C9           0.3900     0.9330    -1.7400 c3         1 J35       0.161300
     18 N1          -0.8800     0.5090    -1.1610 ns         1 J35      -0.482900
     19 C4          -1.9810     0.1300    -1.8940 c          1 J35       0.611700
     20 O1          -1.9480     0.1160    -3.1180 o          1 J35      -0.602100
     21 C1          -3.2220    -0.2640    -1.1130 ca         1 J35      -0.107600
     22 C3          -3.2630    -0.2440     0.3020 ca         1 J35      -0.083500
     23 C5          -4.4300    -0.6160     0.9920 ca         1 J35      -0.074000
     24 C2          -4.3840    -0.6640    -1.8090 ca         1 J35      -0.083500
     25 C7          -5.5500    -1.0350    -1.1190 ca         1 J35      -0.074000
     26 C6          -5.5840    -1.0230     0.2910 ca         1 J35      -0.190300
     27 C16         -6.8590    -1.4180     1.0460 c3         1 J35       0.355300
     28 F1          -7.6500    -0.3440     1.2680 f          1 J35      -0.116333
     29 F3          -7.6020    -2.3220     0.3670 f          1 J35      -0.116333
     30 F2          -6.5920    -1.9680     2.2530 f          1 J35      -0.116333
     31 H2           4.8810    -1.1700    -0.7750 hc         1 J35       0.034700
     32 H3           6.5590    -2.1690     1.5790 hc         1 J35       0.015700
     33 H4           5.4190    -3.1290     0.6440 hc         1 J35       0.015700
     34 H5           6.7970    -2.7440    -1.4300 hc         1 J35       0.049700
     35 H6           7.9660    -1.8300    -0.4770 hc         1 J35       0.049700
     36 H7           8.4450    -3.8700     0.9130 hc         1 J35       0.015033
     37 H8           7.2730    -4.7970    -0.0530 hc         1 J35       0.015033
     38 H9           8.7490    -4.1630    -0.8130 hc         1 J35       0.015033
     39 H10          3.5630    -1.6780     1.2940 hc         1 J35       0.029700
     40 H11          4.5540    -0.5620     2.2070 hc         1 J35       0.029700
     41 H12          4.0750     1.8260     2.1440 ha         1 J35       0.138000
     42 H13          2.5870     3.6560     1.4500 ha         1 J35       0.108000
     43 H14          0.4780     4.7650     1.1820 h1         1 J35       0.033033
     44 H15          1.6620     5.2710    -0.0530 h1         1 J35       0.033033
     45 H16         -0.0780     5.4270    -0.3690 h1         1 J35       0.033033
     46 H17          2.1950    -0.8170    -0.7020 ha         1 J35       0.104000
     47 H18          0.2270     1.8330    -2.3470 h1         1 J35       0.062200
     48 H19          0.7570     0.1430    -2.4090 h1         1 J35       0.062200
     49 H20         -0.9670     0.5090    -0.1540 hn         1 J35       0.310500
     50 H21         -2.4000     0.0600     0.8890 ha         1 J35       0.133000
     51 H22         -4.4320    -0.5830     2.0800 ha         1 J35       0.127000
     52 H23         -4.3890    -0.6860    -2.8970 ha         1 J35       0.133000
     53 H24         -6.4290    -1.3310    -1.6890 ha         1 J35       0.127000
@<TRIPOS>BOND
     1     1     2 1   
     2     2     3 1   
     3     2     4 1   
     4     4     5 1   
     5     4     8 1   
     6     4    31 1   
     7     5     6 1   
     8     5    32 1   
     9     5    33 1   
    10     6     7 1   
    11     6    34 1   
    12     6    35 1   
    13     7    36 1   
    14     7    37 1   
    15     7    38 1   
    16     8     9 1   
    17     8    39 1   
    18     8    40 1   
    19     9    10 ar  
    20     9    15 ar  
    21    10    11 ar  
    22    10    41 1   
    23    11    12 ar  
    24    11    42 1   
    25    12    13 1   
    26    12    16 ar  
    27    13    14 1   
    28    14    43 1   
    29    14    44 1   
    30    14    45 1   
    31    15    16 ar  
    32    15    46 1   
    33    16    17 1   
    34    17    18 1   
    35    17    47 1   
    36    17    48 1   
    37    18    19 1   
    38    18    49 1   
    39    19    20 2   
    40    19    21 1   
    41    21    22 ar  
    42    21    24 ar  
    43    22    23 ar  
    44    22    50 1   
    45    23    26 ar  
    46    23    51 1   
    47    24    25 ar  
    48    24    52 1   
    49    25    26 ar  
    50    25    53 1   
    51    26    27 1   
    52    27    28 1   
    53    27    29 1   
    54    27    30 1   
@<TRIPOS>SUBSTRUCTURE
     1 J35         1 TEMP              0 ****  ****    0 ROOT
