@<TRIPOS>MOLECULE
J35
   53    54     1     0     0
SMALL
bcc


@<TRIPOS>ATOM
      1 O2           6.2790     0.9000    -1.1630 o          1 J35      -0.840300
      2 C19          6.2090     0.4420    -0.0040 c          1 J35       0.926600
      3 O3           6.6240     0.9990     1.0340 o          1 J35      -0.840300
      4 C20          5.5700    -0.9470     0.1780 c3         1 J35      -0.192700
      5 C21          6.6060    -1.9600     0.6630 c3         1 J35      -0.044400
      6 C18          7.7880    -2.1550    -0.2810 c3         1 J35      -0.074400
      7 C22          8.7430    -3.2390     0.2010 c3         1 J35      -0.085100
      8 C17          4.3960    -0.8840     1.1620 c3         1 J35      -0.006100
      9 C15          3.2940     0.0300     0.7070 ca         1 J35      -0.070300
     10 C14          3.1860     1.3350     1.1630 ca         1 J35      -0.052000
     11 C13          2.1740     2.1820     0.7200 ca         1 J35      -0.219000
     12 C11          1.2450     1.7280    -0.2090 ca         1 J35       0.134100
     13 O4           0.2340     2.4720    -0.7000 os         1 J35      -0.323900
     14 C8           0.0850     3.8000    -0.2440 c3         1 J35       0.130700
     15 C12          2.3520    -0.4020    -0.2260 ca         1 J35      -0.083000
     16 C10          1.3360     0.4150    -0.6950 ca         1 J35      -0.170300
     17 C9           0.3450    -0.1010    -1.7010 c3         1 J35       0.161300
     18 N1          -0.9810    -0.2320    -1.1340 ns         1 J35      -0.549900
     19 C4          -2.0890     0.2850    -1.6830 c          1 J35       0.678700
     20 O1          -2.1030     0.9170    -2.7300 o          1 J35      -0.602100
     21 C1          -3.3640     0.0360    -0.9320 ca         1 J35      -0.107600
     22 C3          -3.5530    -1.0720    -0.1140 ca         1 J35      -0.101500
     23 C5          -4.7650    -1.2790     0.5280 ca         1 J35      -0.092000
     24 C2          -4.4140     0.9340    -1.1080 ca         1 J35      -0.101500
     25 C7          -5.6200     0.7400    -0.4610 ca         1 J35      -0.092000
     26 C6          -5.7980    -0.3690     0.3600 ca         1 J35      -0.190300
     27 C16         -7.1290    -0.5800     1.0130 c3         1 J35       0.719200
     28 F1          -7.5760     0.5380     1.6010 f          1 J35      -0.237633
     29 F3          -8.0610    -0.9390     0.1180 f          1 J35      -0.237633
     30 F2          -7.1000    -1.5310     1.9490 f          1 J35      -0.237633
     31 H2           5.1840    -1.2830    -0.7920 hc         1 J35       0.034700
     32 H3           6.9760    -1.6500     1.6460 hc         1 J35       0.015700
     33 H4           6.1140    -2.9280     0.8160 hc         1 J35       0.015700
     34 H5           7.4180    -2.4120    -1.2790 hc         1 J35       0.049700
     35 H6           8.3350    -1.2150    -0.3910 hc         1 J35       0.049700
     36 H7           9.1610    -2.9900     1.1790 hc         1 J35       0.015033
     37 H8           8.2320    -4.1990     0.2990 hc         1 J35       0.015033
     38 H9           9.5770    -3.3760    -0.4880 hc         1 J35       0.015033
     39 H10          3.9950    -1.8940     1.2970 hc         1 J35       0.029700
     40 H11          4.7660    -0.5630     2.1380 hc         1 J35       0.029700
     41 H12          3.9080     1.7130     1.8770 ha         1 J35       0.156000
     42 H13          2.1310     3.1900     1.1080 ha         1 J35       0.126000
     43 H14         -0.0920     3.8460     0.8340 h1         1 J35       0.033033
     44 H15          0.9560     4.4170    -0.4820 h1         1 J35       0.033033
     45 H16         -0.7820     4.2060    -0.7580 h1         1 J35       0.033033
     46 H17          2.4090    -1.4190    -0.6020 ha         1 J35       0.122000
     47 H18          0.2790     0.5600    -2.5640 h1         1 J35       0.062200
     48 H19          0.6810    -1.0740    -2.0680 h1         1 J35       0.062200
     49 H20         -1.0410    -0.6780    -0.2330 hn         1 J35       0.310500
     50 H21         -2.7730    -1.8100     0.0200 ha         1 J35       0.151000
     51 H22         -4.8840    -2.1560     1.1490 ha         1 J35       0.145000
     52 H23         -4.2890     1.7940    -1.7510 ha         1 J35       0.151000
     53 H24         -6.4170     1.4580    -0.6070 ha         1 J35       0.145000
@<TRIPOS>BOND
     1     1     2 1   
     2     2     3 1   
     3     2     4 1   
     4     4     5 1   
     5     4     8 1   
     6     4    31 1   
     7     5     6 1   
     8     5    32 1   
     9     5    33 1   
    10     6     7 1   
    11     6    34 1   
    12     6    35 1   
    13     7    36 1   
    14     7    37 1   
    15     7    38 1   
    16     8     9 1   
    17     8    39 1   
    18     8    40 1   
    19     9    10 ar  
    20     9    15 ar  
    21    10    11 ar  
    22    10    41 1   
    23    11    12 ar  
    24    11    42 1   
    25    12    13 1   
    26    12    16 ar  
    27    13    14 1   
    28    14    43 1   
    29    14    44 1   
    30    14    45 1   
    31    15    16 ar  
    32    15    46 1   
    33    16    17 1   
    34    17    18 1   
    35    17    47 1   
    36    17    48 1   
    37    18    19 1   
    38    18    49 1   
    39    19    20 2   
    40    19    21 1   
    41    21    22 ar  
    42    21    24 ar  
    43    22    23 ar  
    44    22    50 1   
    45    23    26 ar  
    46    23    51 1   
    47    24    25 ar  
    48    24    52 1   
    49    25    26 ar  
    50    25    53 1   
    51    26    27 1   
    52    27    28 1   
    53    27    29 1   
    54    27    30 1   
@<TRIPOS>SUBSTRUCTURE
     1 J35         1 TEMP              0 ****  ****    0 ROOT
