@<TRIPOS>MOLECULE
J36
   35    39     1     0     0
SMALL
No Charge or Current Charge


@<TRIPOS>ATOM
      1 C1          95.4580    90.4690    81.3530 cc         1 J36      -0.096400
      2 C2          95.4350    88.9910    81.5940 c6         1 J36      -0.022200
      3 C3          94.3060    91.2330    81.2970 cd         1 J36      -0.066100
      4 C4          94.1670    88.5850    82.3810 c6         1 J36       0.086000
      5 C5          93.0030    90.6640    81.5640 cd         1 J36       0.159600
      6 N2          94.6000    92.5650    80.9170 na         1 J36      -0.202700
      7 C10         90.5860    90.8970    81.6180 ca         1 J36       0.057200
      8 C11         90.4620    89.5900    82.0930 ca         1 J36      -0.233600
      9 C6          96.5230    91.3610    80.9910 ca         1 J36      -0.096800
     10 C7          95.9740    92.5920    80.7430 ca         1 J36      -0.029200
     11 C8          91.8950    91.4700    81.3630 cc         1 J36      -0.280200
     12 C9          91.6740    88.7660    82.3470 c          1 J36       0.584600
     13 O1          91.5820    87.6400    82.8220 o          1 J36      -0.547000
     14 N1          92.9240    89.3390    82.0240 n          1 J36      -0.289000
     15 N3          88.0470    89.7790    82.1270 nb         1 J36      -0.682000
     16 C12         97.8990    91.1240    80.8750 ca         1 J36      -0.053000
     17 C13         96.7690    93.6810    80.3620 ca         1 J36      -0.132000
     18 C14         98.7230    92.2040    80.4930 ca         1 J36      -0.139000
     19 C15         98.1610    93.4780    80.2380 ca         1 J36      -0.080000
     20 C16         89.4160    91.6370    81.4000 ca         1 J36      -0.182000
     21 C17         89.1810    89.0690    82.3370 ca         1 J36       0.406900
     22 C18         88.1720    91.0430    81.6650 ca         1 J36       0.362900
     23 H2          95.4400    88.4660    80.6300 hc         1 J36       0.066200
     24 H1          96.3320    88.6580    82.1330 hc         1 J36       0.066200
     25 H4          94.0080    87.5050    82.2500 h1         1 J36       0.072700
     26 H3          94.3570    88.7510    83.4510 h1         1 J36       0.072700
     27 H5          93.9500    93.3330    80.7950 hn         1 J36       0.357000
     28 H6          91.9890    92.4900    81.0070 ha         1 J36       0.193000
     29 H7          98.3190    90.1410    81.0720 ha         1 J36       0.117000
     30 H8          96.3290    94.6560    80.1660 ha         1 J36       0.117000
     31 H9          99.7960    92.0570    80.3940 ha         1 J36       0.115000
     32 H10         98.8040    94.3050    79.9440 ha         1 J36       0.113000
     33 H11         89.4590    92.6580    81.0320 ha         1 J36       0.125000
     34 H12         89.0460    88.0540    82.7100 h4         1 J36       0.041100
     35 H13         87.2480    91.5960    81.5040 h4         1 J36       0.019100
@<TRIPOS>BOND
     1     1     2 1   
     2     1     3 2   
     3     1     9 1   
     4     2     4 1   
     5     2    23 1   
     6     2    24 1   
     7     3     5 1   
     8     3     6 1   
     9     4    14 1   
    10     4    25 1   
    11     4    26 1   
    12     5    11 2   
    13     5    14 1   
    14     6    10 1   
    15     6    27 1   
    16     7     8 ar  
    17     7    11 1   
    18     7    20 ar  
    19     8    12 1   
    20     8    21 ar  
    21     9    10 ar  
    22     9    16 ar  
    23    10    17 ar  
    24    11    28 1   
    25    12    13 2   
    26    12    14 1   
    27    15    21 ar  
    28    15    22 ar  
    29    16    18 ar  
    30    16    29 1   
    31    17    19 ar  
    32    17    30 1   
    33    18    19 ar  
    34    18    31 1   
    35    19    32 1   
    36    20    22 ar  
    37    20    33 1   
    38    21    34 1   
    39    22    35 1   
@<TRIPOS>SUBSTRUCTURE
     1 J36         1 TEMP              0 ****  ****    0 ROOT
