@<TRIPOS>MOLECULE
J36
   35    39     1     0     0
SMALL
abcg2


@<TRIPOS>ATOM
      1 C1          95.4350    90.4500    81.3060 cc         1 J36      -0.096400
      2 C2          95.3120    88.9910    81.5490 c6         1 J36      -0.022200
      3 C3          94.3280    91.2500    81.3860 cd         1 J36      -0.066100
      4 C4          94.1530    88.7560    82.5020 c6         1 J36       0.086000
      5 C5          92.9940    90.7580    81.6300 cd         1 J36       0.159600
      6 N2          94.6650    92.5440    81.0850 na         1 J36      -0.202700
      7 C10         90.5980    90.9120    81.5840 ca         1 J36       0.057200
      8 C11         90.5160    89.5970    82.0590 ca         1 J36      -0.233600
      9 C6          96.5240    91.2870    80.9390 ca         1 J36      -0.096800
     10 C7          96.0010    92.5960    80.8190 ca         1 J36      -0.029200
     11 C8          91.8770    91.4860    81.3710 cc         1 J36      -0.280200
     12 C9          91.7190    88.8250    82.3590 c          1 J36       0.584600
     13 O1          91.6830    87.6960    82.8220 o          1 J36      -0.547000
     14 N1          92.9220    89.4580    82.0990 n          1 J36      -0.289000
     15 N3          88.1240    89.6720    82.0300 nb         1 J36      -0.682000
     16 C12         97.8870    91.0640    80.7070 ca         1 J36      -0.053000
     17 C13         96.8080    93.6830    80.4840 ca         1 J36      -0.132000
     18 C14         98.6850    92.1370    80.3680 ca         1 J36      -0.139000
     19 C15         98.1470    93.4330    80.2600 ca         1 J36      -0.080000
     20 C16         89.3910    91.5850    81.3370 ca         1 J36      -0.182000
     21 C17         89.2520    89.0350    82.2650 ca         1 J36       0.406900
     22 C18         88.2070    90.9300    81.5720 ca         1 J36       0.362900
     23 H2          95.1620    88.4470    80.6110 hc         1 J36       0.066200
     24 H1          96.2130    88.5800    82.0080 hc         1 J36       0.066200
     25 H4          93.9230    87.6980    82.5640 h1         1 J36       0.072700
     26 H3          94.4250    89.0980    83.5040 h1         1 J36       0.072700
     27 H5          94.0560    93.3450    81.1350 hn         1 J36       0.357000
     28 H6          91.9520    92.4890    80.9750 ha         1 J36       0.193000
     29 H7          98.3040    90.0680    80.7930 ha         1 J36       0.117000
     30 H8          96.4010    94.6830    80.4000 ha         1 J36       0.117000
     31 H9          99.7400    91.9860    80.1840 ha         1 J36       0.115000
     32 H10         98.8000    94.2540    79.9940 ha         1 J36       0.113000
     33 H11         89.3940    92.6030    80.9680 ha         1 J36       0.125000
     34 H12         89.1720    88.0190    82.6370 h4         1 J36       0.041100
     35 H13         87.2650    91.4330    81.3870 h4         1 J36       0.019100
@<TRIPOS>BOND
     1     1     2 1   
     2     1     3 2   
     3     1     9 1   
     4     2     4 1   
     5     2    23 1   
     6     2    24 1   
     7     3     5 1   
     8     3     6 1   
     9     4    14 1   
    10     4    25 1   
    11     4    26 1   
    12     5    11 2   
    13     5    14 1   
    14     6    10 1   
    15     6    27 1   
    16     7     8 ar  
    17     7    11 1   
    18     7    20 ar  
    19     8    12 1   
    20     8    21 ar  
    21     9    10 ar  
    22     9    16 ar  
    23    10    17 ar  
    24    11    28 1   
    25    12    13 2   
    26    12    14 1   
    27    15    21 ar  
    28    15    22 ar  
    29    16    18 ar  
    30    16    29 1   
    31    17    19 ar  
    32    17    30 1   
    33    18    19 ar  
    34    18    31 1   
    35    19    32 1   
    36    20    22 ar  
    37    20    33 1   
    38    21    34 1   
    39    22    35 1   
@<TRIPOS>SUBSTRUCTURE
     1 J36         1 TEMP              0 ****  ****    0 ROOT
