@<TRIPOS>MOLECULE
J37
  179   181     1     0     0
SMALL
abcg2


@<TRIPOS>ATOM
      1 BR         -20.2240    40.7580   -17.5000 br         1 J37      -0.162100
      2 C54        -20.4060    39.6020   -16.0150 ca         1 J37      -0.031900
      3 C53        -20.2860    38.2340   -16.1930 ca         1 J37      -0.093500
      4 C52        -20.4160    37.3920   -15.0970 ca         1 J37      -0.100500
      5 C55        -20.6530    40.1360   -14.7590 ca         1 J37      -0.093500
      6 C56        -20.7770    39.2780   -13.6770 ca         1 J37      -0.100500
      7 C51        -20.6630    37.8980   -13.8270 ca         1 J37      -0.033300
      8 C50        -20.8430    37.0220   -12.6100 c3         1 J37       0.143300
      9 N2         -20.3440    35.6700   -12.7370 n          1 J37      -0.406800
     10 C11        -21.3180    34.5910   -12.7090 c3         1 J37       0.093000
     11 C10        -22.1770    34.4880   -13.9650 c3         1 J37      -0.092400
     12 C9         -23.0300    33.2190   -13.9310 c3         1 J37      -0.075400
     13 C8         -22.2510    31.9840   -14.3860 c3         1 J37      -0.074400
     14 C1         -22.7990    30.6710   -13.8310 c3         1 J37       0.004700
     15 N          -22.7520    30.6430   -12.3830 ns         1 J37      -0.513900
     16 C2         -21.5860    30.4800   -11.7080 c          1 J37       0.648100
     17 O6         -20.4910    30.5100   -12.2720 o          1 J37      -0.684100
     18 N1         -21.7120    30.2930   -10.3690 ns         1 J37      -0.491900
     19 C3         -20.5990    30.4180    -9.4500 c3         1 J37      -0.022300
     20 C7         -21.0020    29.7760    -8.1040 c          1 J37       0.727000
     21 O5         -22.1960    29.9110    -7.7660 o          1 J37      -0.760500
     22 O4         -20.1020    29.2050    -7.4560 o          1 J37      -0.760500
     23 C4         -20.1990    31.8900    -9.2580 c3         1 J37      -0.059400
     24 C5         -18.9380    32.1120    -8.4370 c3         1 J37      -0.196400
     25 C6         -18.4170    33.5630    -8.4210 c          1 J37       0.711000
     26 O3         -18.6560    34.2740    -9.4230 o          1 J37      -0.776500
     27 O2         -17.7650    33.9070    -7.4150 o          1 J37      -0.776500
     28 C          -22.1940    29.3870   -14.4730 c          1 J37       0.727000
     29 O1         -21.7080    29.5080   -15.6150 o          1 J37      -0.736500
     30 O          -22.3140    28.3350   -13.8190 o          1 J37      -0.736500
     31 C12        -19.0010    35.4990   -12.7740 c          1 J37       0.633100
     32 O21        -18.2470    36.4630   -12.7390 o          1 J37      -0.647100
     33 C13        -18.4640    34.0870   -12.8730 c3         1 J37      -0.196400
     34 C14        -16.9450    34.0600   -12.9810 c3         1 J37       0.184600
     35 O7         -16.4540    32.7390   -13.0180 os         1 J37      -0.483000
     36 C15        -16.3710    32.1040   -11.7600 c3         1 J37       0.140600
     37 C16        -16.8040    30.6610   -11.9320 c3         1 J37       0.145600
     38 O8         -16.6810    30.0140   -10.6890 os         1 J37      -0.454000
     39 C17        -17.0780    28.6670   -10.7330 c3         1 J37       0.162600
     40 C18        -17.0250    28.1170    -9.3210 c3         1 J37       0.146600
     41 O9         -17.3760    26.7580    -9.3820 os         1 J37      -0.468000
     42 C19        -17.4280    26.1430    -8.1200 c3         1 J37       0.165600
     43 C20        -17.7670    24.6820    -8.3410 c3         1 J37       0.152600
     44 O10        -17.7750    24.0360    -7.0940 os         1 J37      -0.459000
     45 C21        -18.0160    22.6570    -7.2050 c3         1 J37       0.165600
     46 C22        -17.8810    22.0340    -5.8290 c3         1 J37       0.155600
     47 O11        -18.0860    20.6530    -5.9780 os         1 J37      -0.469000
     48 C23        -17.8890    19.9190    -4.7980 c3         1 J37       0.166600
     49 C24        -18.0290    18.4510    -5.1520 c3         1 J37       0.154600
     50 O12        -17.8200    17.6960    -3.9860 os         1 J37      -0.465000
     51 C25        -17.8710    16.3120    -4.2190 c3         1 J37       0.162600
     52 C26        -17.6310    15.6060    -2.8990 c3         1 J37       0.157600
     53 O13        -17.6360    14.2230    -3.1470 os         1 J37      -0.466000
     54 C27        -17.4160    13.4570    -1.9910 c3         1 J37       0.162600
     55 C28        -17.3540    12.0000    -2.4080 c3         1 J37       0.157600
     56 O14        -17.1340    11.2300    -1.2550 os         1 J37      -0.465000
     57 C29        -16.9730     9.8630    -1.5340 c3         1 J37       0.161600
     58 C30        -16.7430     9.1410    -0.2220 c3         1 J37       0.159600
     59 O15        -16.5280     7.7840    -0.5140 os         1 J37      -0.466000
     60 C31        -16.2850     7.0040     0.6280 c3         1 J37       0.161600
     61 C32        -15.9770     5.5940     0.1630 c3         1 J37       0.158600
     62 O16        -15.7300     4.8060     1.2990 os         1 J37      -0.464000
     63 C33        -15.3770     3.4860     0.9760 c3         1 J37       0.160600
     64 C34        -15.1300     2.7360     2.2700 c3         1 J37       0.159600
     65 O17        -14.7490     1.4260     1.9370 os         1 J37      -0.466000
     66 C35        -14.5010     0.6220     3.0620 c3         1 J37       0.161600
     67 C36        -14.0630    -0.7420     2.5650 c3         1 J37       0.158600
     68 O18        -13.8290    -1.5560     3.6850 os         1 J37      -0.462000
     69 C37        -13.3910    -2.8450     3.3400 c3         1 J37       0.140600
     70 C38        -13.2100    -3.6460     4.6210 c3         1 J37       0.102000
     71 N3         -12.6970    -4.9680     4.3540 ns         1 J37      -0.511900
     72 C39        -13.4720    -6.0120     4.0050 c          1 J37       0.598100
     73 O20        -14.6870    -5.9220     3.8920 o          1 J37      -0.597100
     74 C40        -12.7380    -7.3190     3.8010 c3         1 J37      -0.158400
     75 C41        -13.2080    -8.0840     2.5690 c3         1 J37      -0.066400
     76 C42        -12.4800    -9.4130     2.4180 c3         1 J37      -0.076400
     77 C43        -12.9070   -10.1930     1.1810 c3         1 J37      -0.076400
     78 C44        -12.1880   -11.5320     1.0730 c3         1 J37      -0.059400
     79 C45        -12.4860   -12.2930    -0.2050 c5         1 J37       0.071300
     80 C48        -11.7080   -13.6070    -0.3560 c5         1 J37       0.097700
     81 C47        -12.4650   -14.5230    -1.3640 c5         1 J37       0.101700
     82 C46        -13.7910   -13.8530    -1.7440 c5         1 J37       0.026600
     83 S          -14.2370   -12.7780    -0.3560 ss         1 J37      -0.400000
     84 N5         -11.7030   -14.4000     0.8470 ns         1 J37      -0.513900
     85 C49        -12.2170   -15.6500     0.6780 c          1 J37       0.614000
     86 O19        -12.2870   -16.5240     1.5270 o          1 J37      -0.577000
     87 N4         -12.6260   -15.7410    -0.6140 ns         1 J37      -0.521900
     88 H92        -20.0910    37.8130   -17.1710 ha         1 J37       0.112500
     89 H91        -20.3110    36.3260   -15.2500 ha         1 J37       0.126500
     90 H93        -20.7450    41.2040   -14.6130 ha         1 J37       0.112500
     91 H94        -20.9610    39.6990   -12.6960 ha         1 J37       0.126500
     92 H89        -20.3840    37.5150   -11.7500 h1         1 J37       0.061200
     93 H90        -21.9100    36.9540   -12.3850 h1         1 J37       0.061200
     94 H20        -20.8060    33.6480   -12.5310 h1         1 J37       0.080200
     95 H21        -21.9710    34.7410   -11.8430 h1         1 J37       0.080200
     96 H18        -22.8110    35.3750   -14.0480 hc         1 J37       0.018200
     97 H19        -21.5370    34.4780   -14.8530 hc         1 J37       0.018200
     98 H16        -23.4090    33.0780   -12.9140 hc         1 J37       0.023700
     99 H17        -23.9120    33.3450   -14.5640 hc         1 J37       0.023700
    100 H14        -22.2670    31.9390   -15.4760 hc         1 J37       0.055700
    101 H15        -21.1990    32.0760   -14.1070 hc         1 J37       0.055700
    102 H          -23.8690    30.6390   -14.0760 h1         1 J37      -0.005300
    103 H6         -23.6150    30.4900   -11.8900 hn         1 J37       0.277500
    104 H7         -22.6160    30.3880    -9.9310 hn         1 J37       0.303500
    105 H1         -19.7440    29.8740    -9.8590 h1         1 J37       0.055700
    106 H8         -20.0550    32.3340   -10.2450 hc         1 J37       0.020200
    107 H9         -21.0430    32.4220    -8.8050 hc         1 J37       0.020200
    108 H10        -19.0760    31.7710    -7.4100 hc         1 J37       0.034200
    109 H11        -18.1360    31.4840    -8.8480 hc         1 J37       0.034200
    110 H22        -18.7760    33.5380   -11.9810 hc         1 J37       0.103200
    111 H23        -18.9060    33.5720   -13.7310 hc         1 J37       0.103200
    112 H24        -16.6220    34.5380   -13.9080 h1         1 J37       0.041200
    113 H25        -16.4950    34.6210   -12.1550 h1         1 J37       0.041200
    114 H26        -15.3430    32.1490   -11.3790 h1         1 J37       0.058200
    115 H27        -17.0130    32.5900   -11.0160 h1         1 J37       0.058200
    116 H28        -17.8420    30.6300   -12.2870 h1         1 J37       0.041700
    117 H29        -16.1810    30.1700   -12.6930 h1         1 J37       0.041700
    118 H30        -18.0970    28.5690   -11.1310 h1         1 J37       0.034700
    119 H31        -16.4160    28.0840   -11.3900 h1         1 J37       0.034700
    120 H32        -16.0140    28.2450    -8.9070 h1         1 J37       0.054200
    121 H33        -17.7170    28.6730    -8.6740 h1         1 J37       0.054200
    122 H34        -16.4640    26.2250    -7.5980 h1         1 J37       0.043200
    123 H35        -18.1860    26.6180    -7.4810 h1         1 J37       0.043200
    124 H36        -18.7420    24.5930    -8.8390 h1         1 J37       0.032700
    125 H37        -17.0200    24.2300    -9.0090 h1         1 J37       0.032700
    126 H38        -19.0200    22.4630    -7.6080 h1         1 J37       0.028200
    127 H39        -17.2960    22.1870    -7.8890 h1         1 J37       0.028200
    128 H40        -16.8820    22.2430    -5.4230 h1         1 J37       0.036700
    129 H41        -18.6120    22.4730    -5.1360 h1         1 J37       0.036700
    130 H42        -16.8910    20.1070    -4.3780 h1         1 J37       0.031200
    131 H43        -18.6220    20.1960    -4.0280 h1         1 J37       0.031200
    132 H44        -19.0260    18.2590    -5.5720 h1         1 J37       0.036200
    133 H45        -17.2950    18.1880    -5.9270 h1         1 J37       0.036200
    134 H46        -18.8460    16.0160    -4.6310 h1         1 J37       0.033200
    135 H47        -17.1060    16.0080    -4.9470 h1         1 J37       0.033200
    136 H48        -16.6690    15.9250    -2.4730 h1         1 J37       0.036200
    137 H49        -18.4120    15.8810    -2.1770 h1         1 J37       0.036200
    138 H50        -16.4760    13.7430    -1.5010 h1         1 J37       0.034200
    139 H51        -18.2230    13.6060    -1.2590 h1         1 J37       0.034200
    140 H52        -18.2910    11.7090    -2.9040 h1         1 J37       0.036700
    141 H53        -16.5430    11.8580    -3.1370 h1         1 J37       0.036700
    142 H54        -17.8620     9.4550    -2.0360 h1         1 J37       0.034700
    143 H55        -16.1180     9.6980    -2.2040 h1         1 J37       0.034700
    144 H56        -15.8740     9.5730     0.2950 h1         1 J37       0.035700
    145 H57        -17.6110     9.2710     0.4390 h1         1 J37       0.035700
    146 H58        -15.4360     7.4000     1.2030 h1         1 J37       0.035200
    147 H59        -17.1580     7.0010     1.2970 h1         1 J37       0.035200
    148 H60        -16.8230     5.1960    -0.4150 h1         1 J37       0.036200
    149 H61        -15.1040     5.6070    -0.5040 h1         1 J37       0.036200
    150 H62        -16.1760     2.9920     0.4050 h1         1 J37       0.035200
    151 H63        -14.4720     3.4620     0.3530 h1         1 J37       0.035200
    152 H64        -14.3450     3.2390     2.8510 h1         1 J37       0.036200
    153 H65        -16.0410     2.7380     2.8850 h1         1 J37       0.036200
    154 H66        -13.7160     1.0600     3.6940 h1         1 J37       0.035700
    155 H67        -15.4020     0.5240     3.6830 h1         1 J37       0.035700
    156 H68        -14.8410    -1.1750     1.9210 h1         1 J37       0.035700
    157 H69        -13.1550    -0.6420     1.9540 h1         1 J37       0.035700
    158 H70        -14.1180    -3.3450     2.6870 h1         1 J37       0.030700
    159 H71        -12.4390    -2.8040     2.7920 h1         1 J37       0.030700
    160 H72        -12.5050    -3.1380     5.2800 h1         1 J37       0.065700
    161 H73        -14.1590    -3.7210     5.1520 h1         1 J37       0.065700
    162 H74        -11.6990    -5.0960     4.3820 hn         1 J37       0.311500
    163 H75        -11.6590    -7.1540     3.7450 hc         1 J37       0.055200
    164 H76        -12.9060    -7.9310     4.6940 hc         1 J37       0.055200
    165 H77        -14.2840    -8.2610     2.6330 hc         1 J37       0.056200
    166 H78        -13.0460    -7.4760     1.6740 hc         1 J37       0.056200
    167 H79        -11.4000    -9.2350     2.3760 hc         1 J37       0.036700
    168 H80        -12.6530   -10.0240     3.3100 hc         1 J37       0.036700
    169 H81        -13.9900   -10.3510     1.2090 hc         1 J37       0.049700
    170 H82        -12.7070    -9.5970     0.2850 hc         1 J37       0.049700
    171 H83        -11.1070   -11.3610     1.1150 hc         1 J37       0.050700
    172 H84        -12.4370   -12.1540     1.9380 hc         1 J37       0.050700
    173 H2         -12.2420   -11.6610    -1.0660 h1         1 J37       0.069700
    174 H4         -10.6910   -13.3880    -0.6910 h1         1 J37       0.062700
    175 H3         -11.8790   -14.6970    -2.2690 h1         1 J37       0.070700
    176 H86        -13.6640   -13.2520    -2.6460 h1         1 J37       0.077700
    177 H85        -14.5800   -14.5810    -1.9310 h1         1 J37       0.077700
    178 H88        -11.0780   -14.2060     1.6110 hn         1 J37       0.336500
    179 H87        -13.2120   -16.4960    -0.9280 hn         1 J37       0.340500
@<TRIPOS>BOND
     1     1     2 1   
     2     2     3 ar  
     3     2     5 ar  
     4     3     4 ar  
     5     3    88 1   
     6     4     7 ar  
     7     4    89 1   
     8     5     6 ar  
     9     5    90 1   
    10     6     7 ar  
    11     6    91 1   
    12     7     8 1   
    13     8     9 1   
    14     8    92 1   
    15     8    93 1   
    16     9    10 1   
    17     9    31 1   
    18    10    11 1   
    19    10    94 1   
    20    10    95 1   
    21    11    12 1   
    22    11    96 1   
    23    11    97 1   
    24    12    13 1   
    25    12    98 1   
    26    12    99 1   
    27    13    14 1   
    28    13   100 1   
    29    13   101 1   
    30    14    15 1   
    31    14    28 1   
    32    14   102 1   
    33    15    16 1   
    34    15   103 1   
    35    16    17 2   
    36    16    18 1   
    37    18    19 1   
    38    18   104 1   
    39    19    20 1   
    40    19    23 1   
    41    19   105 1   
    42    20    21 1   
    43    20    22 1   
    44    23    24 1   
    45    23   106 1   
    46    23   107 1   
    47    24    25 1   
    48    24   108 1   
    49    24   109 1   
    50    25    26 1   
    51    25    27 1   
    52    28    29 1   
    53    28    30 1   
    54    31    32 2   
    55    31    33 1   
    56    33    34 1   
    57    33   110 1   
    58    33   111 1   
    59    34    35 1   
    60    34   112 1   
    61    34   113 1   
    62    35    36 1   
    63    36    37 1   
    64    36   114 1   
    65    36   115 1   
    66    37    38 1   
    67    37   116 1   
    68    37   117 1   
    69    38    39 1   
    70    39    40 1   
    71    39   118 1   
    72    39   119 1   
    73    40    41 1   
    74    40   120 1   
    75    40   121 1   
    76    41    42 1   
    77    42    43 1   
    78    42   122 1   
    79    42   123 1   
    80    43    44 1   
    81    43   124 1   
    82    43   125 1   
    83    44    45 1   
    84    45    46 1   
    85    45   126 1   
    86    45   127 1   
    87    46    47 1   
    88    46   128 1   
    89    46   129 1   
    90    47    48 1   
    91    48    49 1   
    92    48   130 1   
    93    48   131 1   
    94    49    50 1   
    95    49   132 1   
    96    49   133 1   
    97    50    51 1   
    98    51    52 1   
    99    51   134 1   
   100    51   135 1   
   101    52    53 1   
   102    52   136 1   
   103    52   137 1   
   104    53    54 1   
   105    54    55 1   
   106    54   138 1   
   107    54   139 1   
   108    55    56 1   
   109    55   140 1   
   110    55   141 1   
   111    56    57 1   
   112    57    58 1   
   113    57   142 1   
   114    57   143 1   
   115    58    59 1   
   116    58   144 1   
   117    58   145 1   
   118    59    60 1   
   119    60    61 1   
   120    60   146 1   
   121    60   147 1   
   122    61    62 1   
   123    61   148 1   
   124    61   149 1   
   125    62    63 1   
   126    63    64 1   
   127    63   150 1   
   128    63   151 1   
   129    64    65 1   
   130    64   152 1   
   131    64   153 1   
   132    65    66 1   
   133    66    67 1   
   134    66   154 1   
   135    66   155 1   
   136    67    68 1   
   137    67   156 1   
   138    67   157 1   
   139    68    69 1   
   140    69    70 1   
   141    69   158 1   
   142    69   159 1   
   143    70    71 1   
   144    70   160 1   
   145    70   161 1   
   146    71    72 1   
   147    71   162 1   
   148    72    73 2   
   149    72    74 1   
   150    74    75 1   
   151    74   163 1   
   152    74   164 1   
   153    75    76 1   
   154    75   165 1   
   155    75   166 1   
   156    76    77 1   
   157    76   167 1   
   158    76   168 1   
   159    77    78 1   
   160    77   169 1   
   161    77   170 1   
   162    78    79 1   
   163    78   171 1   
   164    78   172 1   
   165    79    80 1   
   166    79    83 1   
   167    79   173 1   
   168    80    81 1   
   169    80    84 1   
   170    80   174 1   
   171    81    82 1   
   172    81    87 1   
   173    81   175 1   
   174    82    83 1   
   175    82   176 1   
   176    82   177 1   
   177    84    85 1   
   178    84   178 1   
   179    85    86 2   
   180    85    87 1   
   181    87   179 1   
@<TRIPOS>SUBSTRUCTURE
     1 J37         1 TEMP              0 ****  ****    0 ROOT
