@<TRIPOS>MOLECULE
J37
  179   181     1     0     0
SMALL
No Charge or Current Charge


@<TRIPOS>ATOM
      1 Br         -22.2180    39.5000   -19.1670 br         1 J37      -0.162100
      2 C54        -21.6860    39.1170   -17.3710 ca         1 J37      -0.031900
      3 C53        -22.5440    39.4300   -16.3050 ca         1 J37      -0.093500
      4 C52        -22.1530    39.1470   -14.9840 ca         1 J37      -0.100500
      5 C55        -20.4380    38.5230   -17.1220 ca         1 J37      -0.093500
      6 C56        -20.0480    38.2400   -15.8010 ca         1 J37      -0.100500
      7 C51        -20.9040    38.5460   -14.7240 ca         1 J37      -0.033300
      8 C50        -20.4840    38.2360   -13.2900 c3         1 J37       0.143300
      9 N2         -20.0490    36.8270   -13.0720 n          1 J37      -0.406800
     10 C11        -21.0800    35.7540   -12.9280 c3         1 J37       0.093000
     11 C10        -22.5670    36.1120   -13.1970 c3         1 J37      -0.092400
     12 C9         -23.5270    34.9310   -12.9230 c3         1 J37      -0.075400
     13 C8         -23.4010    33.7530   -13.9280 c3         1 J37      -0.074400
     14 C1         -24.1220    32.4460   -13.4830 c3         1 J37       0.004700
     15 N          -23.7130    31.9850   -12.1280 ns         1 J37      -0.513900
     16 C2         -22.4260    31.7720   -11.6990 c          1 J37       0.648100
     17 O6         -21.4390    31.8340   -12.4140 o          1 J37      -0.684100
     18 N1         -22.3750    31.4850   -10.3620 ns         1 J37      -0.491900
     19 C3         -21.1350    31.3550    -9.5580 c3         1 J37      -0.022300
     20 C7         -21.3980    30.4570    -8.3030 c          1 J37       0.727000
     21 O5         -22.3410    30.7340    -7.5710 o          1 J37      -0.760500
     22 O4         -20.7320    29.4400    -8.1670 o          1 J37      -0.760500
     23 C4         -20.5740    32.7570    -9.1890 c3         1 J37      -0.059400
     24 C5         -19.2390    32.7280    -8.4020 c3         1 J37      -0.196400
     25 C6         -18.7650    34.1610    -8.1030 c          1 J37       0.711000
     26 O3         -18.0640    34.7250    -8.9280 o          1 J37      -0.776500
     27 O2         -19.1420    34.6910    -7.0680 o          1 J37      -0.776500
     28 C          -24.0400    31.2720   -14.5320 c          1 J37       0.727000
     29 O1         -23.3170    31.3850   -15.5150 o          1 J37      -0.736500
     30 O          -24.7610    30.2960   -14.3570 o          1 J37      -0.736500
     31 C12        -18.6690    36.5260   -12.9240 c          1 J37       0.633100
     32 O21        -17.8230    37.4110   -12.9720 o          1 J37      -0.647100
     33 C13        -18.2500    35.0610   -12.7340 c3         1 J37      -0.196400
     34 C14        -16.7340    34.8310   -12.5730 c3         1 J37       0.184600
     35 O7         -16.4590    33.4160   -12.6530 os         1 J37      -0.483000
     36 C15        -16.9110    32.6130   -11.5390 c3         1 J37       0.140600
     37 C16        -16.4790    31.1550   -11.7880 c3         1 J37       0.145600
     38 O8         -16.9380    30.3540   -10.6840 os         1 J37      -0.454000
     39 C17        -16.6340    28.9510   -10.7970 c3         1 J37       0.162600
     40 C18        -17.1900    28.2320    -9.5500 c3         1 J37       0.146600
     41 O9         -16.8650    26.8310    -9.6580 os         1 J37      -0.468000
     42 C19        -17.2960    26.0260    -8.5430 c3         1 J37       0.165600
     43 C20        -16.8840    24.5640    -8.8200 c3         1 J37       0.152600
     44 O10        -17.2440    23.7600    -7.6800 os         1 J37      -0.459000
     45 C21        -16.9230    22.3630    -7.8160 c3         1 J37       0.165600
     46 C22        -17.3180    21.6370    -6.5120 c3         1 J37       0.155600
     47 O11        -16.9950    20.2410    -6.6580 os         1 J37      -0.469000
     48 C23        -17.2700    19.4360    -5.4960 c3         1 J37       0.166600
     49 C24        -16.8790    17.9770    -5.8180 c3         1 J37       0.154600
     50 O12        -17.0760    17.1770    -4.6360 os         1 J37      -0.465000
     51 C25        -16.7510    15.7830    -4.8060 c3         1 J37       0.162600
     52 C26        -16.9630    15.0610    -3.4580 c3         1 J37       0.157600
     53 O13        -16.6310    13.6710    -3.6390 os         1 J37      -0.466000
     54 C27        -16.7410    12.8670    -2.4490 c3         1 J37       0.162600
     55 C28        -16.3570    11.4170    -2.8130 c3         1 J37       0.157600
     56 O14        -16.4020    10.6180    -1.6150 os         1 J37      -0.465000
     57 C29        -16.0640     9.2320    -1.8150 c3         1 J37       0.161600
     58 C30        -16.1220     8.5120    -0.4510 c3         1 J37       0.159600
     59 O15        -15.7850     7.1270    -0.6590 os         1 J37      -0.466000
     60 C31        -15.7760     6.3270     0.5380 c3         1 J37       0.161600
     61 C32        -15.4080     4.8790     0.1470 c3         1 J37       0.158600
     62 O16        -15.3710     4.0790     1.3440 os         1 J37      -0.464000
     63 C33        -15.0450     2.6930     1.1210 c3         1 J37       0.160600
     64 C34        -15.0290     1.9700     2.4850 c3         1 J37       0.159600
     65 O17        -14.7230     0.5810     2.2570 os         1 J37      -0.466000
     66 C35        -14.6710    -0.2220     3.4520 c3         1 J37       0.161600
     67 C36        -14.3530    -1.6770     3.0450 c3         1 J37       0.158600
     68 O18        -14.3020    -2.4800     4.2410 os         1 J37      -0.462000
     69 C37        -14.0300    -3.8730     4.0130 c3         1 J37       0.140600
     70 C38        -14.0150    -4.5860     5.3830 c3         1 J37       0.102000
     71 N3         -13.7150    -6.0220     5.2850 ns         1 J37      -0.511900
     72 C39        -14.5780    -6.9710     4.7850 c          1 J37       0.598100
     73 O20        -15.7040    -6.6930     4.4020 o          1 J37      -0.597100
     74 C40        -14.0370    -8.4050     4.7860 c3         1 J37      -0.158400
     75 C41        -13.6800    -8.8800     3.3580 c3         1 J37      -0.066400
     76 C42        -13.1550   -10.3320     3.3200 c3         1 J37      -0.076400
     77 C43        -12.7960   -10.8090     1.8960 c3         1 J37      -0.076400
     78 C44        -12.2920   -12.2720     1.8570 c3         1 J37      -0.059400
     79 C45        -11.8740   -12.7670     0.4470 c5         1 J37       0.071300
     80 C48        -11.1830   -14.1790     0.3820 c5         1 J37       0.097700
     81 C47        -11.3260   -14.7240    -1.1000 c5         1 J37       0.101700
     82 C46        -12.2130   -13.7240    -1.9160 c5         1 J37       0.026600
     83 S          -13.3230   -12.8800    -0.6980 ss         1 J37      -0.400000
     84 N5         -12.0220   -15.1160     1.1390 ns         1 J37      -0.513900
     85 C49        -12.5750   -16.0750     0.3640 c          1 J37       0.614000
     86 O19        -13.3080   -16.9610     0.7570 o          1 J37      -0.577000
     87 N4         -12.1690   -15.9080    -0.9160 ns         1 J37      -0.521900
     88 H92        -23.5090    39.8910   -16.4980 ha         1 J37       0.112500
     89 H91        -22.8240    39.3910   -14.1630 ha         1 J37       0.126500
     90 H93        -19.7730    38.2820   -17.9480 ha         1 J37       0.112500
     91 H94        -19.0790    37.7820   -15.6150 ha         1 J37       0.126500
     92 H89        -19.6790    38.9290   -13.0160 h1         1 J37       0.061200
     93 H90        -21.3070    38.4670   -12.6030 h1         1 J37       0.061200
     94 H20        -20.8100    34.9410   -13.6110 h1         1 J37       0.080200
     95 H21        -21.0140    35.3570   -11.9060 h1         1 J37       0.080200
     96 H18        -22.8690    36.9420   -12.5480 hc         1 J37       0.018200
     97 H19        -22.6920    36.4420   -14.2350 hc         1 J37       0.018200
     98 H16        -23.3480    34.5810   -11.8990 hc         1 J37       0.023700
     99 H17        -24.5600    35.2990   -12.9450 hc         1 J37       0.023700
    100 H14        -23.8150    34.0750   -14.8920 hc         1 J37       0.055700
    101 H15        -22.3480    33.5270   -14.1170 hc         1 J37       0.055700
    102 H          -25.1880    32.6970   -13.3980 h1         1 J37      -0.005300
    103 H6         -24.4410    31.8720   -11.4360 hn         1 J37       0.277500
    104 H7         -23.2570    31.4410    -9.8690 hn         1 J37       0.303500
    105 H1         -20.3870    30.8370   -10.1720 h1         1 J37       0.055700
    106 H8         -20.4230    33.3330   -10.1100 hc         1 J37       0.020200
    107 H9         -21.3240    33.2990    -8.6010 hc         1 J37       0.020200
    108 H10        -19.4460    32.1990    -7.4640 hc         1 J37       0.034200
    109 H11        -18.5200    32.2130    -9.0480 hc         1 J37       0.034200
    110 H22        -18.8150    34.6630   -11.8870 hc         1 J37       0.103200
    111 H23        -18.6480    34.4840   -13.5740 hc         1 J37       0.103200
    112 H24        -16.2050    35.3490   -13.3840 h1         1 J37       0.041200
    113 H25        -16.3850    35.2510   -11.6200 h1         1 J37       0.041200
    114 H26        -16.4680    32.9660   -10.5980 h1         1 J37       0.058200
    115 H27        -18.0040    32.6400   -11.4420 h1         1 J37       0.058200
    116 H28        -16.9190    30.8040   -12.7310 h1         1 J37       0.041700
    117 H29        -15.3850    31.1080   -11.8740 h1         1 J37       0.041700
    118 H30        -17.0960    28.5260   -11.6980 h1         1 J37       0.034700
    119 H31        -15.5490    28.7950   -10.8540 h1         1 J37       0.034700
    120 H32        -16.7380    28.6690    -8.6490 h1         1 J37       0.054200
    121 H33        -18.2770    28.3780    -9.5010 h1         1 J37       0.054200
    122 H34        -16.8220    26.3670    -7.6130 h1         1 J37       0.043200
    123 H35        -18.3850    26.0800    -8.4200 h1         1 J37       0.043200
    124 H36        -17.3970    24.2080    -9.7230 h1         1 J37       0.032700
    125 H37        -15.8010    24.5200    -8.9950 h1         1 J37       0.032700
    126 H38        -17.4710    21.9210    -8.6590 h1         1 J37       0.028200
    127 H39        -15.8470    22.2290    -7.9930 h1         1 J37       0.028200
    128 H40        -16.7650    22.0770    -5.6710 h1         1 J37       0.036700
    129 H41        -18.3930    21.7700    -6.3310 h1         1 J37       0.036700
    130 H42        -16.6840    19.7880    -4.6360 h1         1 J37       0.031200
    131 H43        -18.3350    19.4790    -5.2350 h1         1 J37       0.031200
    132 H44        -17.5020    17.6090    -6.6450 h1         1 J37       0.036200
    133 H45        -15.8280    17.9450    -6.1340 h1         1 J37       0.036200
    134 H46        -17.3960    15.3260    -5.5690 h1         1 J37       0.033200
    135 H47        -15.7050    15.6650    -5.1180 h1         1 J37       0.033200
    136 H48        -16.3170    15.5190    -2.6960 h1         1 J37       0.036200
    137 H49        -18.0090    15.1730    -3.1430 h1         1 J37       0.036200
    138 H50        -16.0630    13.2380    -1.6680 h1         1 J37       0.034200
    139 H51        -17.7670    12.8860    -2.0590 h1         1 J37       0.034200
    140 H52        -17.0610    11.0330    -3.5630 h1         1 J37       0.036700
    141 H53        -15.3480    11.4080    -3.2450 h1         1 J37       0.036700
    142 H54        -16.7730     8.7570    -2.5070 h1         1 J37       0.034700
    143 H55        -15.0530     9.1360    -2.2320 h1         1 J37       0.034700
    144 H56        -15.4100     8.9850     0.2390 h1         1 J37       0.035700
    145 H57        -17.1310     8.6070    -0.0300 h1         1 J37       0.035700
    146 H58        -15.0360     6.7090     1.2540 h1         1 J37       0.035200
    147 H59        -16.7630     6.3340     1.0190 h1         1 J37       0.035200
    148 H60        -16.1590     4.4920    -0.5550 h1         1 J37       0.036200
    149 H61        -14.4300     4.8760    -0.3520 h1         1 J37       0.036200
    150 H62        -15.7920     2.2210     0.4690 h1         1 J37       0.035200
    151 H63        -14.0590     2.5970     0.6480 h1         1 J37       0.035200
    152 H64        -14.2720     2.4330     3.1320 h1         1 J37       0.036200
    153 H65        -16.0110     2.0770     2.9640 h1         1 J37       0.036200
    154 H66        -13.8900     0.1450     4.1310 h1         1 J37       0.035700
    155 H67        -15.6330    -0.1950     3.9790 h1         1 J37       0.035700
    156 H68        -15.1350    -2.0430     2.3670 h1         1 J37       0.035700
    157 H69        -13.3910    -1.7060     2.5170 h1         1 J37       0.035700
    158 H70        -14.8020    -4.3190     3.3720 h1         1 J37       0.030700
    159 H71        -13.0550    -4.0040     3.5240 h1         1 J37       0.030700
    160 H72        -13.2590    -4.1150     6.0240 h1         1 J37       0.065700
    161 H73        -14.9930    -4.4600     5.8670 h1         1 J37       0.065700
    162 H74        -12.8050    -6.3490     5.5900 hn         1 J37       0.311500
    163 H75        -13.1350    -8.4660     5.4070 hc         1 J37       0.055200
    164 H76        -14.8110    -9.0690     5.1900 hc         1 J37       0.055200
    165 H77        -14.5690    -8.8020     2.7180 hc         1 J37       0.056200
    166 H78        -12.9220    -8.2090     2.9330 hc         1 J37       0.056200
    167 H79        -12.2680   -10.4110     3.9620 hc         1 J37       0.036700
    168 H80        -13.9160   -11.0000     3.7430 hc         1 J37       0.036700
    169 H81        -13.6790   -10.7110     1.2540 hc         1 J37       0.049700
    170 H82        -12.0230   -10.1510     1.4790 hc         1 J37       0.049700
    171 H83        -11.4330   -12.3590     2.5340 hc         1 J37       0.050700
    172 H84        -13.0770   -12.9190     2.2670 hc         1 J37       0.050700
    173 H2         -11.1810   -12.0230     0.0290 h1         1 J37       0.069700
    174 H4         -10.1430   -14.1640     0.7360 h1         1 J37       0.062700
    175 H3         -10.3650   -14.9480    -1.5830 h1         1 J37       0.070700
    176 H86        -11.5840   -12.9630    -2.3960 h1         1 J37       0.077700
    177 H85        -12.7950   -14.2180    -2.7050 h1         1 J37       0.077700
    178 H88        -12.2210   -15.0980     2.1300 hn         1 J37       0.336500
    179 H87        -12.4960   -16.5450    -1.6310 hn         1 J37       0.340500
@<TRIPOS>BOND
     1     1     2 1   
     2     2     3 ar  
     3     2     5 ar  
     4     3     4 ar  
     5     3    88 1   
     6     4     7 ar  
     7     4    89 1   
     8     5     6 ar  
     9     5    90 1   
    10     6     7 ar  
    11     6    91 1   
    12     7     8 1   
    13     8     9 1   
    14     8    92 1   
    15     8    93 1   
    16     9    10 1   
    17     9    31 1   
    18    10    11 1   
    19    10    94 1   
    20    10    95 1   
    21    11    12 1   
    22    11    96 1   
    23    11    97 1   
    24    12    13 1   
    25    12    98 1   
    26    12    99 1   
    27    13    14 1   
    28    13   100 1   
    29    13   101 1   
    30    14    15 1   
    31    14    28 1   
    32    14   102 1   
    33    15    16 1   
    34    15   103 1   
    35    16    17 2   
    36    16    18 1   
    37    18    19 1   
    38    18   104 1   
    39    19    20 1   
    40    19    23 1   
    41    19   105 1   
    42    20    21 1   
    43    20    22 1   
    44    23    24 1   
    45    23   106 1   
    46    23   107 1   
    47    24    25 1   
    48    24   108 1   
    49    24   109 1   
    50    25    26 1   
    51    25    27 1   
    52    28    29 1   
    53    28    30 1   
    54    31    32 2   
    55    31    33 1   
    56    33    34 1   
    57    33   110 1   
    58    33   111 1   
    59    34    35 1   
    60    34   112 1   
    61    34   113 1   
    62    35    36 1   
    63    36    37 1   
    64    36   114 1   
    65    36   115 1   
    66    37    38 1   
    67    37   116 1   
    68    37   117 1   
    69    38    39 1   
    70    39    40 1   
    71    39   118 1   
    72    39   119 1   
    73    40    41 1   
    74    40   120 1   
    75    40   121 1   
    76    41    42 1   
    77    42    43 1   
    78    42   122 1   
    79    42   123 1   
    80    43    44 1   
    81    43   124 1   
    82    43   125 1   
    83    44    45 1   
    84    45    46 1   
    85    45   126 1   
    86    45   127 1   
    87    46    47 1   
    88    46   128 1   
    89    46   129 1   
    90    47    48 1   
    91    48    49 1   
    92    48   130 1   
    93    48   131 1   
    94    49    50 1   
    95    49   132 1   
    96    49   133 1   
    97    50    51 1   
    98    51    52 1   
    99    51   134 1   
   100    51   135 1   
   101    52    53 1   
   102    52   136 1   
   103    52   137 1   
   104    53    54 1   
   105    54    55 1   
   106    54   138 1   
   107    54   139 1   
   108    55    56 1   
   109    55   140 1   
   110    55   141 1   
   111    56    57 1   
   112    57    58 1   
   113    57   142 1   
   114    57   143 1   
   115    58    59 1   
   116    58   144 1   
   117    58   145 1   
   118    59    60 1   
   119    60    61 1   
   120    60   146 1   
   121    60   147 1   
   122    61    62 1   
   123    61   148 1   
   124    61   149 1   
   125    62    63 1   
   126    63    64 1   
   127    63   150 1   
   128    63   151 1   
   129    64    65 1   
   130    64   152 1   
   131    64   153 1   
   132    65    66 1   
   133    66    67 1   
   134    66   154 1   
   135    66   155 1   
   136    67    68 1   
   137    67   156 1   
   138    67   157 1   
   139    68    69 1   
   140    69    70 1   
   141    69   158 1   
   142    69   159 1   
   143    70    71 1   
   144    70   160 1   
   145    70   161 1   
   146    71    72 1   
   147    71   162 1   
   148    72    73 2   
   149    72    74 1   
   150    74    75 1   
   151    74   163 1   
   152    74   164 1   
   153    75    76 1   
   154    75   165 1   
   155    75   166 1   
   156    76    77 1   
   157    76   167 1   
   158    76   168 1   
   159    77    78 1   
   160    77   169 1   
   161    77   170 1   
   162    78    79 1   
   163    78   171 1   
   164    78   172 1   
   165    79    80 1   
   166    79    83 1   
   167    79   173 1   
   168    80    81 1   
   169    80    84 1   
   170    80   174 1   
   171    81    82 1   
   172    81    87 1   
   173    81   175 1   
   174    82    83 1   
   175    82   176 1   
   176    82   177 1   
   177    84    85 1   
   178    84   178 1   
   179    85    86 2   
   180    85    87 1   
   181    87   179 1   
@<TRIPOS>SUBSTRUCTURE
     1 J37         1 TEMP              0 ****  ****    0 ROOT
