@<TRIPOS>MOLECULE
J38
   26    27     1     0     0
SMALL
No Charge or Current Charge


@<TRIPOS>ATOM
      1 C01          4.8610    -0.3000    -0.3360 c3         1 J38      -0.071100
      2 C02          3.3310    -0.0910    -0.5220 c6         1 J38      -0.021700
      3 S03          2.4190    -1.5130     0.2220 ss         1 J38      -0.126000
      4 C04          0.7350    -0.9340     0.1150 ca         1 J38      -0.137000
      5 C05         -0.3100    -1.8700     0.0740 ca         1 J38      -0.066000
      6 C06         -1.6470    -1.4420     0.0160 ca         1 J38      -0.106000
      7 C07         -1.9610    -0.0600     0.0060 ca         1 J38      -0.119600
      8 C08         -3.3930     0.4450    -0.0510 c          1 J38       0.611700
      9 O09         -3.6630     1.6400     0.0030 o          1 J38      -0.566100
     10 N10         -4.3930    -0.5190    -0.1550 ns         1 J38      -0.376400
     11 O11         -5.7600    -0.1490    -0.4670 oh         1 J38      -0.427100
     12 C12         -0.8970     0.8700     0.0600 ca         1 J38      -0.095000
     13 C13          0.4430     0.4430     0.1070 ca         1 J38      -0.021000
     14 N14          1.4710     1.4120     0.1840 ns         1 J38      -0.151000
     15 C15          2.8380     1.2600     0.0500 c          1 J38       0.574000
     16 O16          3.6060     2.1690     0.3460 o          1 J38      -0.518000
     17 H01          5.1820    -1.2550    -0.7680 hc         1 J38       0.057367
     18 H01A         5.4350     0.4930    -0.8320 hc         1 J38       0.057367
     19 H01B         5.1370    -0.3030     0.7250 hc         1 J38       0.057367
     20 H02          3.0900    -0.0770    -1.5930 h1         1 J38       0.094700
     21 H05         -0.0860    -2.9350     0.0900 ha         1 J38       0.131000
     22 H06         -2.4250    -2.1990    -0.0120 ha         1 J38       0.113000
     23 H12         -1.1110     1.9370     0.0620 ha         1 J38       0.147000
     24 HN14         1.1710     2.3350     0.4720 hn         1 J38       0.170000
     25 H10         -4.1340    -1.4820    -0.3550 hn         1 J38       0.335500
     26 H11         -6.2910    -0.6190     0.2200 ho         1 J38       0.451000
@<TRIPOS>BOND
     1     1     2 1   
     2     1    17 1   
     3     1    18 1   
     4     1    19 1   
     5     2     3 1   
     6     2    15 1   
     7     2    20 1   
     8     3     4 1   
     9     4     5 ar  
    10     4    13 ar  
    11     5     6 ar  
    12     5    21 1   
    13     6     7 ar  
    14     6    22 1   
    15     7     8 1   
    16     7    12 ar  
    17     8     9 2   
    18     8    10 1   
    19    10    11 1   
    20    10    25 1   
    21    11    26 1   
    22    12    13 ar  
    23    12    23 1   
    24    13    14 1   
    25    14    15 1   
    26    14    24 1   
    27    15    16 2   
@<TRIPOS>SUBSTRUCTURE
     1 J38         1 TEMP              0 ****  ****    0 ROOT
