@<TRIPOS>MOLECULE
J38
   26    27     1     0     0
SMALL
bcc


@<TRIPOS>ATOM
      1 C01          4.7100    -0.2520    -0.4370 c3         1 J38      -0.071100
      2 C02          3.2050    -0.0680    -0.4740 c6         1 J38      -0.069600
      3 S03          2.4250    -1.4420     0.4320 ss         1 J38      -0.205000
      4 C04          0.7580    -0.9560     0.2150 ca         1 J38      -0.010100
      5 C05         -0.2560    -1.9000     0.1140 ca         1 J38      -0.084000
      6 C06         -1.5780    -1.5060     0.0070 ca         1 J38      -0.124000
      7 C07         -1.9050    -0.1500    -0.0270 ca         1 J38      -0.119600
      8 C08         -3.2980     0.3820    -0.1550 c          1 J38       0.678700
      9 O09         -3.5300     1.5780    -0.1510 o          1 J38      -0.566100
     10 N10         -4.2740    -0.5460    -0.2340 ns         1 J38      -0.443400
     11 O11         -5.5370    -0.1430    -0.5440 oh         1 J38      -0.388100
     12 C12         -0.8870     0.7920     0.0590 ca         1 J38      -0.113000
     13 C13          0.4380     0.4040     0.1960 ca         1 J38       0.071600
     14 N14          1.4240     1.3710     0.3670 ns         1 J38      -0.477100
     15 C15          2.7570     1.2480     0.1300 c          1 J38       0.716500
     16 O16          3.5270     2.1590     0.3600 o          1 J38      -0.593500
     17 H01          4.9820    -1.2070    -0.8850 hc         1 J38       0.057367
     18 H01A         5.2020     0.5330    -1.0070 hc         1 J38       0.057367
     19 H01B         5.0930    -0.2280     0.5830 hc         1 J38       0.057367
     20 H02          2.8500    -0.1090    -1.5090 h1         1 J38       0.094700
     21 H05         -0.0100    -2.9530     0.1240 ha         1 J38       0.149000
     22 H06         -2.3260    -2.2840    -0.0510 ha         1 J38       0.131000
     23 H12         -1.1280     1.8480     0.0340 ha         1 J38       0.165000
     24 HN14         1.1160     2.2880     0.6610 hn         1 J38       0.336500
     25 H10         -4.1000    -1.5160    -0.4430 hn         1 J38       0.335500
     26 H11         -6.0130    -0.0860     0.2950 ho         1 J38       0.412000
@<TRIPOS>BOND
     1     1     2 1   
     2     1    17 1   
     3     1    18 1   
     4     1    19 1   
     5     2     3 1   
     6     2    15 1   
     7     2    20 1   
     8     3     4 1   
     9     4     5 ar  
    10     4    13 ar  
    11     5     6 ar  
    12     5    21 1   
    13     6     7 ar  
    14     6    22 1   
    15     7     8 1   
    16     7    12 ar  
    17     8     9 2   
    18     8    10 1   
    19    10    11 1   
    20    10    25 1   
    21    11    26 1   
    22    12    13 ar  
    23    12    23 1   
    24    13    14 1   
    25    14    15 1   
    26    14    24 1   
    27    15    16 2   
@<TRIPOS>SUBSTRUCTURE
     1 J38         1 TEMP              0 ****  ****    0 ROOT
