@<TRIPOS>MOLECULE
J3A
   53    56     1     0     0
SMALL
No Charge or Current Charge


@<TRIPOS>ATOM
      1 C4          -0.3090     2.1810    18.3580 ca         1 J3A      -0.094000
      2 C14         -0.1650     3.7230    29.3850 c6         1 J3A       0.146300
      3 C5          -1.0510     2.1170    17.1650 ca         1 J3A      -0.115000
      4 C6          -2.4400     2.3220    17.1900 ca         1 J3A      -0.104000
      5 C11          1.7990     2.9110    25.5650 ca         1 J3A      -0.369000
      6 C8          -0.5240     2.7510    22.1090 ce         1 J3A      -0.273800
      7 C9           0.3130     2.8060    23.3380 ca         1 J3A       0.252800
      8 C10          0.4180     3.1500    25.6100 ca         1 J3A       0.430900
      9 C12          2.3660     2.6220    24.3260 ca         1 J3A       0.421900
     10 C13          0.3930     4.1340    27.9720 c6         1 J3A       0.231300
     11 N1          -0.3260     3.0850    24.4890 nb         1 J3A      -0.288000
     12 N2           1.6320     2.5760    23.2070 nb         1 J3A      -0.277000
     13 C3          -0.9450     2.4500    19.5870 ca         1 J3A      -0.059800
     14 N3          -0.2660     3.4360    26.8160 nh         1 J3A      -0.780300
     15 C1          -3.0840     2.5910    18.4080 ca         1 J3A      -0.115000
     16 C2          -2.3420     2.6550    19.6010 ca         1 J3A      -0.094000
     17 N4          -1.5810     3.2260    29.4040 n3         1 J3A      -0.720600
     18 C15         -2.3660     3.8040    28.2780 c6         1 J3A       0.146300
     19 C16         -1.7720     3.3920    26.8880 c6         1 J3A       0.231300
     20 C17         -2.2300     3.3620    30.7260 c3         1 J3A       0.157100
     21 N5           3.7300     2.3950    24.2490 nu         1 J3A      -0.897800
     22 C18          4.5850     1.9470    23.2940 cc         1 J3A       0.518900
     23 N6           5.8700     1.9830    23.5220 nd         1 J3A      -0.589800
     24 N7           6.3910     1.4350    22.3430 na         1 J3A      -0.019200
     25 C19          5.3860     1.0720    21.4330 cd         1 J3A      -0.122300
     26 C20          4.2230     1.4030    22.0580 cc         1 J3A      -0.222000
     27 C21          5.6250     0.4470    20.0840 c3         1 J3A      -0.031800
     28 H1           0.7660     2.0190    18.3210 ha         1 J3A       0.113500
     29 H3          -0.0560     4.5960    30.0460 h1         1 J3A       0.039700
     30 H4          -0.5490     1.9080    16.2230 ha         1 J3A       0.112000
     31 H5          -3.0150     2.2720    16.2670 ha         1 J3A       0.112000
     32 H6           2.4130     2.9230    26.4570 ha         1 J3A       0.124000
     33 H8          -1.5790     2.9330    22.3070 ha         1 J3A       0.190000
     34 H9           1.4800     3.9860    27.9880 h1         1 J3A       0.057200
     35 H10          0.2380     5.2170    27.8540 h1         1 J3A       0.057200
     36 H11         -4.1600     2.7500    18.4290 ha         1 J3A       0.112000
     37 H12         -2.8660     2.8640    20.5290 ha         1 J3A       0.113500
     38 H14         -2.3780     4.9020    28.3510 h1         1 J3A       0.039700
     39 H15         -3.4130     3.4690    28.3210 h1         1 J3A       0.039700
     40 H16         -2.2170     4.0440    26.1220 h1         1 J3A       0.057200
     41 H17         -2.1070     2.3670    26.6740 h1         1 J3A       0.057200
     42 H18         -1.6360     2.8610    31.5020 h1         1 J3A       0.032367
     43 H19         -2.3370     4.4200    31.0030 h1         1 J3A       0.032367
     44 H20         -3.2290     2.9060    30.7160 h1         1 J3A       0.032367
     45 H21          4.2310     2.6080    25.1040 hn         1 J3A       0.508000
     46 H23          3.2180     1.2620    21.6840 ha         1 J3A       0.165000
     47 H24          6.2520     1.0920    19.4560 hc         1 J3A       0.051367
     48 H25          6.1300    -0.5210    20.1830 hc         1 J3A       0.051367
     49 H26          4.6810     0.2800    19.5530 hc         1 J3A       0.051367
     50 H13          7.3960     1.3240    22.2030 hn         1 J3A       0.369000
     51 C7          -0.1340     2.5100    20.8220 cf         1 J3A      -0.116200
     52 H2           0.4870     2.9420    29.8000 h1         1 J3A       0.039700
     53 H7           0.9300     2.3330    20.6520 ha         1 J3A       0.190000
@<TRIPOS>BOND
     1     1     3 ar  
     2     1    13 ar  
     3     1    28 1   
     4     2    10 1   
     5     2    17 1   
     6     2    29 1   
     7     2    52 1   
     8     3     4 ar  
     9     3    30 1   
    10     4    15 ar  
    11     4    31 1   
    12     5     8 ar  
    13     5     9 ar  
    14     5    32 1   
    15     6     7 1   
    16     6    33 1   
    17     6    51 2   
    18     7    11 ar  
    19     7    12 ar  
    20     8    11 ar  
    21     8    14 1   
    22     9    12 ar  
    23     9    21 1   
    24    10    14 1   
    25    10    34 1   
    26    10    35 1   
    27    13    16 ar  
    28    13    51 1   
    29    14    19 1   
    30    15    16 ar  
    31    15    36 1   
    32    16    37 1   
    33    17    18 1   
    34    17    20 1   
    35    18    19 1   
    36    18    38 1   
    37    18    39 1   
    38    19    40 1   
    39    19    41 1   
    40    20    42 1   
    41    20    43 1   
    42    20    44 1   
    43    21    22 1   
    44    21    45 1   
    45    22    23 2   
    46    22    26 1   
    47    23    24 1   
    48    24    25 1   
    49    24    50 1   
    50    25    26 2   
    51    25    27 1   
    52    26    46 1   
    53    27    47 1   
    54    27    48 1   
    55    27    49 1   
    56    51    53 1   
@<TRIPOS>SUBSTRUCTURE
     1 J3A         1 TEMP              0 ****  ****    0 ROOT
