@<TRIPOS>MOLECULE
J3A
   53    56     1     0     0
SMALL
abcg2


@<TRIPOS>ATOM
      1 C4          -0.2700     1.8580    18.6560 ca         1 J3A      -0.094000
      2 C14         -0.0880     3.4170    29.0960 c6         1 J3A       0.146300
      3 C5          -0.9690     1.7020    17.4660 ca         1 J3A      -0.115000
      4 C6          -2.3310     1.9800    17.4170 ca         1 J3A      -0.104000
      5 C11          1.7760     3.2470    25.6410 ca         1 J3A      -0.369000
      6 C8          -0.5530     2.8840    22.2330 ce         1 J3A      -0.273800
      7 C9           0.2960     3.0070    23.4230 ca         1 J3A       0.252800
      8 C10          0.4210     3.6030    25.6430 ca         1 J3A       0.430900
      9 C12          2.3140     2.7780    24.4420 ca         1 J3A       0.421900
     10 C13          0.4170     4.3680    28.0040 c6         1 J3A       0.231300
     11 N1          -0.3180     3.4710    24.5120 nb         1 J3A      -0.288000
     12 N2           1.5840     2.6580    23.3240 nb         1 J3A      -0.277000
     13 C3          -0.9130     2.2970    19.8220 ca         1 J3A      -0.059800
     14 N3          -0.2240     4.0870    26.7320 nh         1 J3A      -0.780300
     15 C1          -2.9860     2.4150    18.5690 ca         1 J3A      -0.115000
     16 C2          -2.2880     2.5720    19.7560 ca         1 J3A      -0.094000
     17 N4          -1.4900     3.0580    28.8550 n3         1 J3A      -0.720600
     18 C15         -2.2010     4.1350    28.1790 c6         1 J3A       0.146300
     19 C16         -1.6780     4.2610    26.7450 c6         1 J3A       0.231300
     20 C17         -2.1430     2.6080    30.0710 c3         1 J3A       0.157100
     21 N5           3.6360     2.4210    24.4090 nu         1 J3A      -0.897800
     22 C18          4.3860     1.9160    23.3580 cc         1 J3A       0.518900
     23 N6           5.6880     1.7160    23.5760 nd         1 J3A      -0.589800
     24 N7           6.1510     1.2180    22.4010 na         1 J3A      -0.019200
     25 C19          5.1930     1.0980    21.4600 cd         1 J3A      -0.122300
     26 C20          4.0180     1.5410    22.0450 cc         1 J3A      -0.222000
     27 C21          5.4710     0.6050    20.0820 c3         1 J3A      -0.031800
     28 H1           0.7910     1.6410    18.6920 ha         1 J3A       0.113500
     29 H3           0.0350     3.9230    30.0670 h1         1 J3A       0.039700
     30 H4          -0.4510     1.3620    16.5780 ha         1 J3A       0.112000
     31 H5          -2.8800     1.8580    16.4920 ha         1 J3A       0.112000
     32 H6           2.3980     3.3030    26.5200 ha         1 J3A       0.124000
     33 H8          -1.5820     3.1830    22.3860 ha         1 J3A       0.190000
     34 H9           1.4960     4.3060    27.9180 h1         1 J3A       0.057200
     35 H10          0.1850     5.4000    28.2780 h1         1 J3A       0.057200
     36 H11         -4.0470     2.6310    18.5380 ha         1 J3A       0.112000
     37 H12         -2.8160     2.9090    20.6390 ha         1 J3A       0.113500
     38 H14         -2.1160     5.0910    28.7200 h1         1 J3A       0.039700
     39 H15         -3.2620     3.8890    28.1380 h1         1 J3A       0.039700
     40 H16         -1.9630     5.2300    26.3210 h1         1 J3A       0.057200
     41 H17         -2.1210     3.4850    26.1260 h1         1 J3A       0.057200
     42 H18         -1.5870     1.7700    30.4950 h1         1 J3A       0.032367
     43 H19         -2.2010     3.3990    30.8380 h1         1 J3A       0.032367
     44 H20         -3.1570     2.2720    29.8460 h1         1 J3A       0.032367
     45 H21          4.1540     2.5490    25.2660 hn         1 J3A       0.508000
     46 H23          3.0450     1.5880    21.5980 ha         1 J3A       0.165000
     47 H24          5.8590     1.4070    19.4490 hc         1 J3A       0.051367
     48 H25          6.2120    -0.1970    20.0940 hc         1 J3A       0.051367
     49 H26          4.5570     0.2280    19.6260 hc         1 J3A       0.051367
     50 H13          7.1250     0.9800    22.3140 hn         1 J3A       0.369000
     51 C7          -0.1240     2.4450    21.0420 cf         1 J3A      -0.116200
     52 H2           0.5090     2.5020    29.1220 h1         1 J3A       0.039700
     53 H7           0.9200     2.1670    20.9530 ha         1 J3A       0.190000
@<TRIPOS>BOND
     1     1     3 ar  
     2     1    13 ar  
     3     1    28 1   
     4     2    10 1   
     5     2    17 1   
     6     2    29 1   
     7     2    52 1   
     8     3     4 ar  
     9     3    30 1   
    10     4    15 ar  
    11     4    31 1   
    12     5     8 ar  
    13     5     9 ar  
    14     5    32 1   
    15     6     7 1   
    16     6    33 1   
    17     6    51 2   
    18     7    11 ar  
    19     7    12 ar  
    20     8    11 ar  
    21     8    14 1   
    22     9    12 ar  
    23     9    21 1   
    24    10    14 1   
    25    10    34 1   
    26    10    35 1   
    27    13    16 ar  
    28    13    51 1   
    29    14    19 1   
    30    15    16 ar  
    31    15    36 1   
    32    16    37 1   
    33    17    18 1   
    34    17    20 1   
    35    18    19 1   
    36    18    38 1   
    37    18    39 1   
    38    19    40 1   
    39    19    41 1   
    40    20    42 1   
    41    20    43 1   
    42    20    44 1   
    43    21    22 1   
    44    21    45 1   
    45    22    23 2   
    46    22    26 1   
    47    23    24 1   
    48    24    25 1   
    49    24    50 1   
    50    25    26 2   
    51    25    27 1   
    52    26    46 1   
    53    27    47 1   
    54    27    48 1   
    55    27    49 1   
    56    51    53 1   
@<TRIPOS>SUBSTRUCTURE
     1 J3A         1 TEMP              0 ****  ****    0 ROOT
