@<TRIPOS>MOLECULE
J3C
   42    45     1     0     0
SMALL
No Charge or Current Charge


@<TRIPOS>ATOM
      1 C10        -51.6540    10.9760    -7.3430 c3         1 J3C      -0.014900
      2 C11        -50.3960    18.3080    -9.1290 c6         1 J3C       0.137300
      3 C12        -50.2220    18.2460    -7.5740 c6         1 J3C       0.245800
      4 C13        -49.1550    19.2140    -7.0330 ca         1 J3C      -0.114300
      5 C14        -49.5560    20.4710    -6.5340 ca         1 J3C      -0.100500
      6 C15        -48.6040    21.3770    -6.0350 ca         1 J3C      -0.111500
      7 C16        -47.2420    21.0370    -6.0310 ca         1 J3C      -0.103000
      8 C17        -46.8310    19.7880    -6.5260 ca         1 J3C      -0.111500
      9 C18        -47.7820    18.8800    -7.0250 ca         1 J3C      -0.100500
     10 C1         -52.0970    13.5890    -8.8560 cc         1 J3C      -0.183000
     11 C2         -52.1790    14.8650    -9.4120 cd         1 J3C      -0.060000
     12 C3         -51.4600    16.0070    -8.8890 cd         1 J3C      -0.195300
     13 C4         -50.6540    15.8270    -7.7860 cc         1 J3C       0.398000
     14 C5         -50.5630    14.5300    -7.2030 cc         1 J3C      -0.116000
     15 C6         -51.5950    17.3790    -9.5370 c6         1 J3C       0.239600
     16 C7         -50.1790    12.7320    -6.0580 cd         1 J3C       0.064400
     17 C8         -51.0540    12.3280    -7.0490 cc         1 J3C      -0.171300
     18 C9         -49.5770    11.8790    -4.9720 c3         1 J3C      -0.013900
     19 N1         -51.2630    13.4930    -7.7380 na         1 J3C       0.164100
     20 N2         -49.8790    14.0890    -6.1560 nd         1 J3C      -0.304600
     21 N3         -49.9230    16.8460    -7.2170 nu         1 J3C      -0.931200
     22 O1         -52.8530    17.9570    -9.1550 oh         1 J3C      -0.652000
     23 O2         -49.1840    17.8430    -9.7530 oh         1 J3C      -0.640000
     24 H1         -51.3740    10.6330    -8.3460 hc         1 J3C       0.045033
     25 H2         -51.3090    10.2220    -6.6250 hc         1 J3C       0.045033
     26 H3         -52.7480    11.0130    -7.2880 hc         1 J3C       0.045033
     27 H4         -50.6100    19.3410    -9.4390 h1         1 J3C       0.032700
     28 H5         -51.1840    18.5290    -7.1170 h1         1 J3C       0.061700
     29 H6         -50.6080    20.7480    -6.5320 ha         1 J3C       0.123000
     30 H7         -48.9230    22.3450    -5.6530 ha         1 J3C       0.116000
     31 H8         -46.5050    21.7390    -5.6450 ha         1 J3C       0.115000
     32 H9         -45.7760    19.5230    -6.5240 ha         1 J3C       0.116000
     33 H10        -47.4450    17.9190    -7.4060 ha         1 J3C       0.123000
     34 H11        -52.6130    12.7060    -9.2080 h4         1 J3C       0.145000
     35 H12        -52.8160    15.0050   -10.2800 ha         1 J3C       0.125000
     36 H13        -51.5690    17.2570   -10.6310 h1         1 J3C       0.054700
     37 H14        -50.3600    11.4390    -4.3440 hc         1 J3C       0.043367
     38 H15        -48.9890    11.0600    -5.4000 hc         1 J3C       0.043367
     39 H16        -48.9150    12.4620    -4.3210 hc         1 J3C       0.043367
     40 H17        -49.5620    16.6290    -6.2870 hn         1 J3C       0.510000
     41 H18        -52.9990    18.7270    -9.7450 ho         1 J3C       0.437000
     42 H19        -48.8450    17.1820    -9.1060 ho         1 J3C       0.452000
@<TRIPOS>BOND
     1     1    17 1   
     2     1    24 1   
     3     1    25 1   
     4     1    26 1   
     5     2     3 1   
     6     2    15 1   
     7     2    23 1   
     8     2    27 1   
     9     3     4 1   
    10     3    21 1   
    11     3    28 1   
    12     4     5 ar  
    13     4     9 ar  
    14     5     6 ar  
    15     5    29 1   
    16     6     7 ar  
    17     6    30 1   
    18     7     8 ar  
    19     7    31 1   
    20     8     9 ar  
    21     8    32 1   
    22     9    33 1   
    23    10    11 2   
    24    10    19 1   
    25    10    34 1   
    26    11    12 1   
    27    11    35 1   
    28    12    13 2   
    29    12    15 1   
    30    13    14 1   
    31    13    21 1   
    32    14    19 1   
    33    14    20 2   
    34    15    22 1   
    35    15    36 1   
    36    16    17 2   
    37    16    18 1   
    38    16    20 1   
    39    17    19 1   
    40    18    37 1   
    41    18    38 1   
    42    18    39 1   
    43    21    40 1   
    44    22    41 1   
    45    23    42 1   
@<TRIPOS>SUBSTRUCTURE
     1 J3C         1 TEMP              0 ****  ****    0 ROOT
