@<TRIPOS>MOLECULE
J3C
   42    45     1     0     0
SMALL
abcg2


@<TRIPOS>ATOM
      1 C10        -51.4980    10.9970    -7.5170 c3         1 J3C      -0.014900
      2 C11        -50.4770    18.2910    -8.9460 c6         1 J3C       0.137300
      3 C12        -50.3250    18.1960    -7.4170 c6         1 J3C       0.245800
      4 C13        -49.2160    19.1000    -6.9410 ca         1 J3C      -0.114300
      5 C14        -49.5000    20.4390    -6.6770 ca         1 J3C      -0.100500
      6 C15        -48.4960    21.3180    -6.3030 ca         1 J3C      -0.111500
      7 C16        -47.1860    20.8680    -6.1820 ca         1 J3C      -0.103000
      8 C17        -46.8940    19.5370    -6.4410 ca         1 J3C      -0.111500
      9 C18        -47.9010    18.6580    -6.8230 ca         1 J3C      -0.100500
     10 C1         -51.9400    13.6330    -9.0020 cc         1 J3C      -0.183000
     11 C2         -52.0380    14.8860    -9.5090 cd         1 J3C      -0.060000
     12 C3         -51.4380    16.0020    -8.8730 cd         1 J3C      -0.195300
     13 C4         -50.7200    15.8170    -7.7120 cc         1 J3C       0.398000
     14 C5         -50.6230    14.5010    -7.1830 cc         1 J3C      -0.116000
     15 C6         -51.6180    17.3860    -9.4160 c6         1 J3C       0.239600
     16 C7         -50.2330    12.7500    -6.0320 cd         1 J3C       0.064400
     17 C8         -50.9880    12.3270    -7.1040 cc         1 J3C      -0.171300
     18 C9         -49.6940    11.9250    -4.9160 c3         1 J3C      -0.013900
     19 N1         -51.2340    13.4630    -7.8370 na         1 J3C       0.164100
     20 N2         -50.0130    14.0910    -6.0900 nd         1 J3C      -0.304600
     21 N3         -50.0820    16.8230    -7.0570 nu         1 J3C      -0.931200
     22 O1         -52.8680    17.8660    -8.9640 oh         1 J3C      -0.652000
     23 O2         -49.3230    17.8750    -9.6250 oh         1 J3C      -0.640000
     24 H1         -51.1110    10.6960    -8.4930 hc         1 J3C       0.045033
     25 H2         -51.1970    10.2370    -6.7980 hc         1 J3C       0.045033
     26 H3         -52.5890    10.9760    -7.5770 hc         1 J3C       0.045033
     27 H4         -50.7320    19.3340    -9.1850 h1         1 J3C       0.032700
     28 H5         -51.2700    18.5580    -6.9870 h1         1 J3C       0.061700
     29 H6         -50.5210    20.7940    -6.7630 ha         1 J3C       0.123000
     30 H7         -48.7350    22.3530    -6.0990 ha         1 J3C       0.116000
     31 H8         -46.4010    21.5500    -5.8850 ha         1 J3C       0.115000
     32 H9         -45.8770    19.1770    -6.3470 ha         1 J3C       0.116000
     33 H10        -47.6580    17.6200    -7.0150 ha         1 J3C       0.123000
     34 H11        -52.3790    12.7560    -9.4510 h4         1 J3C       0.145000
     35 H12        -52.5930    15.0330   -10.4270 ha         1 J3C       0.125000
     36 H13        -51.5900    17.3540   -10.5140 h1         1 J3C       0.054700
     37 H14        -50.0700    12.2740    -3.9530 hc         1 J3C       0.043367
     38 H15        -49.9690    10.8770    -5.0180 hc         1 J3C       0.043367
     39 H16        -48.6050    11.9800    -4.8770 hc         1 J3C       0.043367
     40 H17        -49.7920    16.6310    -6.1110 hn         1 J3C       0.510000
     41 H18        -53.0520    18.7010    -9.4100 ho         1 J3C       0.437000
     42 H19        -48.6060    18.4880    -9.4310 ho         1 J3C       0.452000
@<TRIPOS>BOND
     1     1    17 1   
     2     1    24 1   
     3     1    25 1   
     4     1    26 1   
     5     2     3 1   
     6     2    15 1   
     7     2    23 1   
     8     2    27 1   
     9     3     4 1   
    10     3    21 1   
    11     3    28 1   
    12     4     5 ar  
    13     4     9 ar  
    14     5     6 ar  
    15     5    29 1   
    16     6     7 ar  
    17     6    30 1   
    18     7     8 ar  
    19     7    31 1   
    20     8     9 ar  
    21     8    32 1   
    22     9    33 1   
    23    10    11 2   
    24    10    19 1   
    25    10    34 1   
    26    11    12 1   
    27    11    35 1   
    28    12    13 2   
    29    12    15 1   
    30    13    14 1   
    31    13    21 1   
    32    14    19 1   
    33    14    20 2   
    34    15    22 1   
    35    15    36 1   
    36    16    17 2   
    37    16    18 1   
    38    16    20 1   
    39    17    19 1   
    40    18    37 1   
    41    18    38 1   
    42    18    39 1   
    43    21    40 1   
    44    22    41 1   
    45    23    42 1   
@<TRIPOS>SUBSTRUCTURE
     1 J3C         1 TEMP              0 ****  ****    0 ROOT
