@<TRIPOS>MOLECULE
J3D
   15    14     1     0     0
SMALL
No Charge or Current Charge


@<TRIPOS>ATOM
      1 C01         -0.4540    -1.4750     0.6090 c3         1 J3D       0.123600
      2 S02          1.2390    -2.2380     0.5470 sh         1 J3D      -0.425800
      3 C03         -0.6150    -0.1570    -0.1870 c3         1 J3D      -0.012300
      4 N04          0.3220     0.9120     0.2690 ns         1 J3D      -0.538900
      5 C05          1.4190     1.3750    -0.4000 c          1 J3D       0.729000
      6 O06          1.6790     0.9470    -1.5090 o          1 J3D      -0.780500
      7 O07          2.0610     2.2400     0.1600 o          1 J3D      -0.780500
      8 C08         -2.0940     0.3320    -0.1160 c          1 J3D       0.705000
      9 O09         -2.5710     0.6200     0.9750 o          1 J3D      -0.756500
     10 O10         -2.7200     0.4440    -1.1620 o          1 J3D      -0.756500
     11 H011        -1.1680    -2.2140     0.2220 h1         1 J3D       0.032700
     12 H012        -0.6990    -1.2950     1.6630 h1         1 J3D       0.032700
     13 H021         0.9480    -3.3030     1.3280 hs         1 J3D       0.093800
     14 H031        -0.4090    -0.3830    -1.2410 h1         1 J3D       0.053700
     15 H041         0.1530     1.3390     1.1690 hn         1 J3D       0.279500
@<TRIPOS>BOND
     1     1     2 1   
     2     1     3 1   
     3     1    11 1   
     4     1    12 1   
     5     2    13 1   
     6     3     4 1   
     7     3     8 1   
     8     3    14 1   
     9     4     5 1   
    10     4    15 1   
    11     5     6 1   
    12     5     7 1   
    13     8     9 1   
    14     8    10 1   
@<TRIPOS>SUBSTRUCTURE
     1 J3D         1 TEMP              0 ****  ****    0 ROOT
