@<TRIPOS>MOLECULE
J3D
   15    14     1     0     0
SMALL
bcc


@<TRIPOS>ATOM
      1 C01         -0.4720    -1.4790     0.4940 c3         1 J3D       0.075700
      2 S02          1.2250    -2.1310     0.3080 sh         1 J3D      -0.377900
      3 C03         -0.6030    -0.0930    -0.1400 c3         1 J3D      -0.012300
      4 N04          0.3050     0.8580     0.4370 ns         1 J3D      -0.605900
      5 C05          1.4810     1.2690    -0.1990 c          1 J3D       1.006600
      6 O06          1.9160     0.5610    -1.1370 o          1 J3D      -0.885800
      7 O07          2.0200     2.3030     0.2600 o          1 J3D      -0.885800
      8 C08         -2.0820     0.3650    -0.0040 c          1 J3D       0.915600
      9 O09         -2.3030     1.4400     0.5830 o          1 J3D      -0.861800
     10 O10         -2.9330    -0.4090    -0.4850 o          1 J3D      -0.861800
     11 H011        -1.1670    -2.1710     0.0220 h1         1 J3D       0.032700
     12 H012        -0.7100    -1.4240     1.5590 h1         1 J3D       0.032700
     13 H021         0.9780    -3.3210     0.8730 hs         1 J3D       0.093800
     14 H031        -0.3940    -0.1980    -1.2100 h1         1 J3D       0.053700
     15 H041        -0.1680     1.5750     0.9640 hn         1 J3D       0.279500
@<TRIPOS>BOND
     1     1     2 1   
     2     1     3 1   
     3     1    11 1   
     4     1    12 1   
     5     2    13 1   
     6     3     4 1   
     7     3     8 1   
     8     3    14 1   
     9     4     5 1   
    10     4    15 1   
    11     5     6 1   
    12     5     7 1   
    13     8     9 1   
    14     8    10 1   
@<TRIPOS>SUBSTRUCTURE
     1 J3D         1 TEMP              0 ****  ****    0 ROOT
