@<TRIPOS>MOLECULE
J3E
   57    61     1     0     0
SMALL
bcc


@<TRIPOS>ATOM
      1 C1           6.3200     0.1320     0.2530 cc         1 J3E       0.339600
      2 C3           5.9410    -1.9600     0.8870 cd         1 J3E      -0.085600
      3 C7           3.9680    -1.9350    -1.6700 ca         1 J3E      -0.132000
      4 C8           2.7860    -1.9740    -2.4280 ca         1 J3E      -0.185000
      5 C9           1.7720    -1.0610    -2.2180 ca         1 J3E      -0.088000
      6 C10          1.9330    -0.0940    -1.2180 ca         1 J3E      -0.096800
      7 C11          1.1030     0.9590    -0.7180 cc         1 J3E      -0.171400
      8 C12         -0.2670     1.2880    -1.2160 c3         1 J3E       0.025800
      9 C13         -1.3620     0.5660    -0.4310 c3         1 J3E      -0.080400
     10 C14         -2.7310     0.8930    -0.9870 c3         1 J3E       0.138400
     11 C15         -5.0000     0.3090    -0.5590 ca         1 J3E       0.186100
     12 C16         -5.4670     1.0310    -1.6310 ca         1 J3E      -0.250000
     13 C19         -7.2930    -0.3770    -0.0380 ca         1 J3E      -0.003000
     14 C20         -8.1950    -1.0950     0.7820 ca         1 J3E      -0.140000
     15 C21         -7.7490    -1.8130     1.8580 ca         1 J3E      -0.117000
     16 C22         -6.3750    -1.8470     2.1640 ca         1 J3E      -0.158000
     17 C24         -5.9090    -0.4150     0.2710 ca         1 J3E      -0.064000
     18 O1           0.3350     3.1970     1.1130 o          1 J3E      -0.816300
     19 O2           2.3580     2.9990     2.0450 o          1 J3E      -0.816300
     20 C25          1.8000     1.5460     0.3110 cd         1 J3E      -0.080300
     21 N2           3.0120     0.9170     0.4490 na         1 J3E      -0.141400
     22 C26          3.1270    -0.0810    -0.4620 ca         1 J3E      -0.052200
     23 C6           4.1740    -0.9890    -0.6760 ca         1 J3E      -0.024000
     24 C5           5.4040    -0.9420     0.1180 cc         1 J3E      -0.197300
     25 C4           5.4650    -3.3420     1.1520 c3         1 J3E      -0.026800
     26 N1           7.0740    -1.4620     1.4070 na         1 J3E      -0.015600
     27 N            7.3260    -0.2070     1.0360 nd         1 J3E      -0.539800
     28 C            6.2550     1.4740    -0.3920 c3         1 J3E      -0.126400
     29 O           -3.7080     0.2180    -0.2080 os         1 J3E      -0.318900
     30 C23         -5.4740    -1.1650     1.3880 ca         1 J3E      -0.075000
     31 C18         -7.7450     0.3710    -1.1520 ca         1 J3E      -0.180000
     32 C17         -6.8470     1.0540    -1.9210 ca         1 J3E      -0.076000
     33 H1           4.7510    -2.6550    -1.8740 ha         1 J3E       0.108000
     34 H2           2.6800    -2.7320    -3.1940 ha         1 J3E       0.107000
     35 H3           0.8680    -1.0980    -2.8130 ha         1 J3E       0.118000
     36 H4          -0.4360     2.3630    -1.1560 hc         1 J3E       0.040200
     37 H5          -0.3430     1.0160    -2.2750 hc         1 J3E       0.040200
     38 H6          -1.2000    -0.5150    -0.4710 hc         1 J3E       0.062700
     39 H7          -1.3000     0.8690     0.6160 hc         1 J3E       0.062700
     40 H8          -2.9080     1.9750    -0.9590 h1         1 J3E       0.032200
     41 H9          -2.8000     0.5770    -2.0340 h1         1 J3E       0.032200
     42 H10         -4.7950     1.5920    -2.2660 ha         1 J3E       0.140000
     43 H11         -9.2510    -1.0670     0.5410 ha         1 J3E       0.122000
     44 H12         -8.4500    -2.3590     2.4760 ha         1 J3E       0.120000
     45 H13         -6.0280    -2.4140     3.0180 ha         1 J3E       0.127000
     46 H15          3.6790     1.1680     1.1600 hn         1 J3E       0.319700
     47 H16          5.9910    -4.0730     0.5360 hc         1 J3E       0.047367
     48 H17          5.6140    -3.6220     2.1950 hc         1 J3E       0.047367
     49 H18          4.4040    -3.4260     0.9260 hc         1 J3E       0.047367
     50 H19          7.7150    -1.9370     2.0230 hn         1 J3E       0.307700
     51 H20          5.5980     2.1600     0.1450 hc         1 J3E       0.051700
     52 H21          7.2420     1.9330    -0.4300 hc         1 J3E       0.051700
     53 H22          5.8750     1.3990    -1.4110 hc         1 J3E       0.051700
     54 H23         -4.4230    -1.2020     1.6380 ha         1 J3E       0.153000
     55 H24         -8.8020     0.3930    -1.3840 ha         1 J3E       0.123000
     56 H25         -7.1870     1.6270    -2.7730 ha         1 J3E       0.120000
     57 C27          1.4620     2.6830     1.2350 c          1 J3E       0.934800
@<TRIPOS>BOND
     1     1    24 1   
     2     1    27 2   
     3     1    28 1   
     4     2    24 2   
     5     2    25 1   
     6     2    26 1   
     7     3     4 ar  
     8     3    23 ar  
     9     3    33 1   
    10     4     5 ar  
    11     4    34 1   
    12     5     6 ar  
    13     5    35 1   
    14     6     7 1   
    15     6    22 ar  
    16     7     8 1   
    17     7    20 2   
    18     8     9 1   
    19     8    36 1   
    20     8    37 1   
    21     9    10 1   
    22     9    38 1   
    23     9    39 1   
    24    10    29 1   
    25    10    40 1   
    26    10    41 1   
    27    11    12 ar  
    28    11    17 ar  
    29    11    29 1   
    30    12    32 ar  
    31    12    42 1   
    32    13    14 ar  
    33    13    17 ar  
    34    13    31 ar  
    35    14    15 ar  
    36    14    43 1   
    37    15    16 ar  
    38    15    44 1   
    39    16    30 ar  
    40    16    45 1   
    41    17    30 ar  
    42    18    57 1   
    43    19    57 1   
    44    20    21 1   
    45    20    57 1   
    46    21    22 1   
    47    21    46 1   
    48    22    23 ar  
    49    23    24 1   
    50    25    47 1   
    51    25    48 1   
    52    25    49 1   
    53    26    27 1   
    54    26    50 1   
    55    28    51 1   
    56    28    52 1   
    57    28    53 1   
    58    30    54 1   
    59    31    32 ar  
    60    31    55 1   
    61    32    56 1   
@<TRIPOS>SUBSTRUCTURE
     1 J3E         1 TEMP              0 ****  ****    0 ROOT
