@<TRIPOS>MOLECULE
J3E
   57    61     1     0     0
SMALL
No Charge or Current Charge


@<TRIPOS>ATOM
      1 C1           6.3130     0.1000     0.4120 cc         1 J3E       0.274300
      2 C3           5.9050    -2.0560     0.7910 cd         1 J3E      -0.136300
      3 C7           3.8200    -2.0810    -1.4590 ca         1 J3E      -0.114000
      4 C8           2.5910    -2.1220    -2.1540 ca         1 J3E      -0.167000
      5 C9           1.6520    -1.0860    -1.9970 ca         1 J3E      -0.070000
      6 C10          1.9780    -0.0300    -1.1340 ca         1 J3E      -0.096800
      7 C11          1.1940     1.1160    -0.7570 cc         1 J3E      -0.171400
      8 C12         -0.1790     1.4300    -1.3050 c3         1 J3E       0.025800
      9 C13         -1.3010     0.6960    -0.5430 c3         1 J3E      -0.080400
     10 C14         -2.7020     0.9870    -1.1120 c3         1 J3E       0.161600
     11 C15         -5.0110     0.2770    -0.5820 ca         1 J3E       0.186100
     12 C16         -5.5500     1.0580    -1.6300 ca         1 J3E      -0.232000
     13 C19         -7.2710    -0.4680    -0.0080 ca         1 J3E      -0.003000
     14 C20         -8.1410    -1.2270     0.7980 ca         1 J3E      -0.122000
     15 C21         -7.6320    -2.0110     1.8450 ca         1 J3E      -0.099000
     16 C22         -6.2500    -2.0390     2.0910 ca         1 J3E      -0.140000
     17 C24         -5.8770    -0.4900     0.2340 ca         1 J3E      -0.064000
     18 O1           0.4860     3.5640     0.7960 o          1 J3E      -0.711000
     19 O2           2.3880     3.4720     1.7760 o          1 J3E      -0.711000
     20 C25          1.9570     1.7950     0.2100 cd         1 J3E      -0.080300
     21 N2           3.1820     1.1040     0.3880 na         1 J3E      -0.191700
     22 C26          3.1680     0.0140    -0.4620 ca         1 J3E      -0.052200
     23 C6           4.1420    -1.0020    -0.6000 ca         1 J3E      -0.024000
     24 C5           5.4400    -0.9690     0.0980 cc         1 J3E      -0.132000
     25 C4           5.3460    -3.4470     0.9770 c3         1 J3E      -0.026800
     26 N1           7.0620    -1.5990     1.4350 na         1 J3E      -0.015200
     27 N            7.3130    -0.2510     1.1970 nd         1 J3E      -0.539800
     28 C            6.2100     1.4870    -0.1640 c3         1 J3E      -0.126400
     29 O           -3.6510     0.2420    -0.3310 os         1 J3E      -0.342100
     30 C23         -5.3750    -1.2830     1.2910 ca         1 J3E      -0.057000
     31 C18         -7.7920     0.3140    -1.0540 ca         1 J3E      -0.162000
     32 C17         -6.9350     1.0740    -1.8620 ca         1 J3E      -0.058000
     33 H1           4.5380    -2.8810    -1.6180 ha         1 J3E       0.090000
     34 H2           2.3700    -2.9560    -2.8150 ha         1 J3E       0.089000
     35 H3           0.7000    -1.1160    -2.5200 ha         1 J3E       0.100000
     36 H4          -0.3700     2.5080    -1.3040 hc         1 J3E       0.040200
     37 H5          -0.2210     1.1340    -2.3610 hc         1 J3E       0.040200
     38 H6          -1.1160    -0.3840    -0.5800 hc         1 J3E       0.062700
     39 H7          -1.2720     0.9940     0.5120 hc         1 J3E       0.062700
     40 H8          -2.9070     2.0640    -1.0490 h1         1 J3E       0.032200
     41 H9          -2.7410     0.6800    -2.1650 h1         1 J3E       0.032200
     42 H10         -4.9130     1.6570    -2.2730 ha         1 J3E       0.122000
     43 H11         -9.2130    -1.2100     0.6130 ha         1 J3E       0.104000
     44 H12         -8.3070    -2.5960     2.4650 ha         1 J3E       0.102000
     45 H13         -5.8550    -2.6460     2.9020 ha         1 J3E       0.109000
     46 H15          3.9060     1.3500     1.0530 hn         1 J3E       0.370000
     47 H16          5.6430    -4.1050     0.1520 hc         1 J3E       0.047367
     48 H17          5.7080    -3.9000     1.9080 hc         1 J3E       0.047367
     49 H18          4.2510    -3.4340     1.0250 hc         1 J3E       0.047367
     50 H19          7.6700    -2.1540     2.0370 hn         1 J3E       0.358000
     51 H20          5.8040     2.1900     0.5720 hc         1 J3E       0.051700
     52 H21          7.1990     1.8540    -0.4620 hc         1 J3E       0.051700
     53 H22          5.5750     1.5050    -1.0560 hc         1 J3E       0.051700
     54 H23         -4.3080    -1.3190     1.4990 ha         1 J3E       0.135000
     55 H24         -8.8630     0.3340    -1.2420 ha         1 J3E       0.105000
     56 H25         -7.3440     1.6770    -2.6700 ha         1 J3E       0.102000
     57 C27          1.5730     3.0350     0.9730 c          1 J3E       0.724200
@<TRIPOS>BOND
     1     1    24 1   
     2     1    27 2   
     3     1    28 1   
     4     2    24 2   
     5     2    25 1   
     6     2    26 1   
     7     3     4 ar  
     8     3    23 ar  
     9     3    33 1   
    10     4     5 ar  
    11     4    34 1   
    12     5     6 ar  
    13     5    35 1   
    14     6     7 1   
    15     6    22 ar  
    16     7     8 1   
    17     7    20 2   
    18     8     9 1   
    19     8    36 1   
    20     8    37 1   
    21     9    10 1   
    22     9    38 1   
    23     9    39 1   
    24    10    29 1   
    25    10    40 1   
    26    10    41 1   
    27    11    12 ar  
    28    11    17 ar  
    29    11    29 1   
    30    12    32 ar  
    31    12    42 1   
    32    13    14 ar  
    33    13    17 ar  
    34    13    31 ar  
    35    14    15 ar  
    36    14    43 1   
    37    15    16 ar  
    38    15    44 1   
    39    16    30 ar  
    40    16    45 1   
    41    17    30 ar  
    42    18    57 1   
    43    19    57 1   
    44    20    21 1   
    45    20    57 1   
    46    21    22 1   
    47    21    46 1   
    48    22    23 ar  
    49    23    24 1   
    50    25    47 1   
    51    25    48 1   
    52    25    49 1   
    53    26    27 1   
    54    26    50 1   
    55    28    51 1   
    56    28    52 1   
    57    28    53 1   
    58    30    54 1   
    59    31    32 ar  
    60    31    55 1   
    61    32    56 1   
@<TRIPOS>SUBSTRUCTURE
     1 J3E         1 TEMP              0 ****  ****    0 ROOT
