@<TRIPOS>MOLECULE
J3F
   64    67     1     0     0
SMALL
No Charge or Current Charge


@<TRIPOS>ATOM
      1 N1          19.5340    18.9820    20.4240 ns         1 J3F      -0.484500
      2 C4          20.0260    17.7130    17.2110 c3         1 J3F      -0.000100
      3 C5          19.2840    17.6080    15.8830 ca         1 J3F      -0.136300
      4 C6          19.2350    18.7070    15.0030 ca         1 J3F      -0.059000
      5 C7          18.5470    18.6100    13.7810 ca         1 J3F      -0.169500
      6 C8          17.8990    17.4060    13.4280 ca         1 J3F       0.153100
      7 C10         18.6370    16.4090    15.5270 ca         1 J3F      -0.059000
      8 C15         14.3810    20.2000     9.8690 cc         1 J3F      -0.454200
      9 C17         15.7500    22.4920     9.0460 ca         1 J3F       0.233100
     10 C20         17.6640    23.6100     8.0540 ca         1 J3F       0.389000
     11 C21         18.2600    22.3590     7.8320 ca         1 J3F      -0.222000
     12 C22         17.6050    21.1750     8.2070 ca         1 J3F      -0.008000
     13 C24         20.0220    24.8760     9.5600 c3         1 J3F      -0.113100
     14 C26         18.0910    25.9630     5.4630 c3         1 J3F      -0.113100
     15 C1          18.6710    19.9180    19.9660 c          1 J3F       0.594600
     16 C2          19.8660    17.8410    19.7680 c          1 J3F       0.576000
     17 C3          19.0830    17.8150    18.4350 c5         1 J3F      -0.036700
     18 S1          18.0620    19.3820    18.3560 ss         1 J3F      -0.263600
     19 O1          18.3730    20.9410    20.5560 o          1 J3F      -0.463000
     20 O2          20.6590    17.0200    20.2000 o          1 J3F      -0.486000
     21 C9          17.9500    16.3120    14.3060 ca         1 J3F      -0.169500
     22 O3          17.2080    17.2520    12.2440 os         1 J3F      -0.348100
     23 C11         17.0960    18.3150    11.2790 c3         1 J3F       0.154600
     24 C12         16.2610    17.8010    10.0860 c3         1 J3F       0.196800
     25 N2          16.0950    18.7920     8.9930 nh         1 J3F      -0.670400
     26 C14         15.5780    20.0600     9.2410 cd         1 J3F       0.297800
     27 C16         13.8020    21.5180    10.1080 c          1 J3F       0.691300
     28 O4          14.5310    22.5900     9.6680 os         1 J3F      -0.345200
     29 C18         16.3310    21.2370     8.8090 ca         1 J3F      -0.227800
     30 O5          12.7250    21.6610    10.6660 o          1 J3F      -0.506000
     31 C19         16.4070    23.6680     8.6690 ca         1 J3F      -0.244000
     32 C23         19.7490    25.0230     8.0520 c3         1 J3F       0.216300
     33 C25         17.6380    25.8640     6.9290 c3         1 J3F       0.216300
     34 H1          19.9660    19.1470    21.3210 hn         1 J3F       0.352500
     35 H4          20.6740    16.8340    17.3250 hc         1 J3F       0.068200
     36 H3          20.7050    18.5750    17.1990 hc         1 J3F       0.068200
     37 H5          19.7270    19.6410    15.2670 ha         1 J3F       0.115500
     38 H6          18.5260    19.4760    13.1260 ha         1 J3F       0.125000
     39 H8          18.6670    15.5520    16.1970 ha         1 J3F       0.115500
     40 H13         15.5210    17.4420     7.4530 h1         1 J3F       0.043367
     41 H14         15.9760    19.0650     6.8820 h1         1 J3F       0.043367
     42 H15         17.2360    17.9270     7.4200 h1         1 J3F       0.043367
     43 H16         13.7910    19.3560    10.1980 ha         1 J3F       0.211000
     44 H18         19.2360    22.3000     7.3610 ha         1 J3F       0.118000
     45 H19         18.1000    20.2230     8.0340 ha         1 J3F       0.116000
     46 H22         21.0740    25.0950     9.7770 hc         1 J3F       0.043700
     47 H23         19.3990    25.5730    10.1330 hc         1 J3F       0.043700
     48 H24         19.8090    23.8560     9.9010 hc         1 J3F       0.043700
     49 H27         17.5320    26.7530     4.9470 hc         1 J3F       0.043700
     50 H28         19.1590    26.2000     5.3970 hc         1 J3F       0.043700
     51 H29         17.9100    25.0160     4.9400 hc         1 J3F       0.043700
     52 H2          18.4140    16.9460    18.4660 h1         1 J3F       0.115700
     53 H7          17.4520    15.3840    14.0370 ha         1 J3F       0.125000
     54 H10         18.0880    18.6190    10.9200 h1         1 J3F       0.043200
     55 H9          16.6000    19.1880    11.7220 h1         1 J3F       0.043200
     56 H12         15.2740    17.4960    10.4570 h1         1 J3F       0.063200
     57 H11         16.7500    16.8980     9.6970 h1         1 J3F       0.063200
     58 H17         15.9440    24.6260     8.8750 ha         1 J3F       0.138000
     59 H21         20.0560    26.0350     7.7540 h1         1 J3F       0.049700
     60 H20         20.3950    24.3260     7.5020 h1         1 J3F       0.049700
     61 H25         16.5530    25.6920     6.9350 h1         1 J3F       0.049700
     62 H26         17.8040    26.8320     7.4230 h1         1 J3F       0.049700
     63 N3          18.3340    24.7960     7.6810 nh         1 J3F      -0.805400
     64 C13         16.2140    18.2790     7.6110 c3         1 J3F       0.193100
@<TRIPOS>BOND
     1     1    15 1   
     2     1    16 1   
     3     1    34 1   
     4     2     3 1   
     5     2    17 1   
     6     2    35 1   
     7     2    36 1   
     8     3     4 ar  
     9     3     7 ar  
    10     4     5 ar  
    11     4    37 1   
    12     5     6 ar  
    13     5    38 1   
    14     6    21 ar  
    15     6    22 1   
    16     7    21 ar  
    17     7    39 1   
    18     8    26 2   
    19     8    27 1   
    20     8    43 1   
    21     9    28 1   
    22     9    29 ar  
    23     9    31 ar  
    24    10    11 ar  
    25    10    31 ar  
    26    10    63 1   
    27    11    12 ar  
    28    11    44 1   
    29    12    29 ar  
    30    12    45 1   
    31    13    32 1   
    32    13    46 1   
    33    13    47 1   
    34    13    48 1   
    35    14    33 1   
    36    14    49 1   
    37    14    50 1   
    38    14    51 1   
    39    15    18 1   
    40    15    19 2   
    41    16    17 1   
    42    16    20 2   
    43    17    18 1   
    44    17    52 1   
    45    21    53 1   
    46    22    23 1   
    47    23    24 1   
    48    23    54 1   
    49    23    55 1   
    50    24    25 1   
    51    24    56 1   
    52    24    57 1   
    53    25    26 1   
    54    25    64 1   
    55    26    29 1   
    56    27    28 1   
    57    27    30 2   
    58    31    58 1   
    59    32    59 1   
    60    32    60 1   
    61    32    63 1   
    62    33    61 1   
    63    33    62 1   
    64    33    63 1   
    65    40    64 1   
    66    41    64 1   
    67    42    64 1   
@<TRIPOS>SUBSTRUCTURE
     1 J3F         1 TEMP              0 ****  ****    0 ROOT
