@<TRIPOS>MOLECULE
J3F
   64    67     1     0     0
SMALL
abcg2


@<TRIPOS>ATOM
      1 N1          20.4640    16.8850    20.9790 ns         1 J3F      -0.484500
      2 C4          19.5960    15.8140    17.7480 c3         1 J3F      -0.000100
      3 C5          18.9040    16.3890    16.5440 ca         1 J3F      -0.136300
      4 C6          19.5560    17.2580    15.6810 ca         1 J3F      -0.059000
      5 C7          18.9120    17.8130    14.5790 ca         1 J3F      -0.169500
      6 C8          17.5820    17.4960    14.3280 ca         1 J3F       0.153100
      7 C10         17.5680    16.0850    16.2790 ca         1 J3F      -0.059000
      8 C15         14.7550    20.3890     9.4650 cc         1 J3F      -0.454200
      9 C17         15.6810    22.4430     7.8860 ca         1 J3F       0.233100
     10 C20         17.3630    24.0020     7.1000 ca         1 J3F       0.389000
     11 C21         18.2630    23.3790     8.0040 ca         1 J3F      -0.222000
     12 C22         17.8810    22.3000     8.7590 ca         1 J3F      -0.008000
     13 C24         19.0120    26.6910     7.6300 c3         1 J3F      -0.113100
     14 C26         17.2500    26.7060     4.4840 c3         1 J3F      -0.113100
     15 C1          20.4150    18.1840    20.5310 c          1 J3F       0.594600
     16 C2          19.8280    15.9120    20.2610 c          1 J3F       0.576000
     17 C3          19.1320    16.4880    19.0410 c5         1 J3F      -0.036700
     18 S1          19.4730    18.2750    19.0410 ss         1 J3F      -0.263600
     19 O1          20.9360    19.1240    21.0640 o          1 J3F      -0.463000
     20 O2          19.8220    14.7430    20.5480 o          1 J3F      -0.486000
     21 C9          16.9110    16.6260    15.1920 ca         1 J3F      -0.169500
     22 O3          16.8650    17.9700    13.2900 os         1 J3F      -0.348100
     23 C11         17.5120    18.7570    12.3090 c3         1 J3F       0.154600
     24 C12         16.4690    19.0130    11.2310 c3         1 J3F       0.196800
     25 N2          16.9890    19.8820    10.1940 nh         1 J3F      -0.670400
     26 C14         16.1060    20.6310     9.4660 cd         1 J3F       0.297800
     27 C16         13.8460    21.1320     8.6550 c          1 J3F       0.691300
     28 O4          14.3730    22.1060     7.8540 os         1 J3F      -0.345200
     29 C18         16.5900    21.7550     8.6910 ca         1 J3F      -0.227800
     30 O5          12.6500    20.9580     8.5690 o          1 J3F      -0.506000
     31 C19         16.0430    23.5240     7.1000 ca         1 J3F      -0.244000
     32 C23         19.0270    25.6800     6.4930 c3         1 J3F       0.216300
     33 C25         16.7280    25.6910     5.4850 c3         1 J3F       0.216300
     34 H1          20.9820    16.6620    21.8210 hn         1 J3F       0.352500
     35 H4          19.3790    14.7470    17.8350 hc         1 J3F       0.068200
     36 H3          20.6780    15.9210    17.6520 hc         1 J3F       0.068200
     37 H5          20.5930    17.5140    15.8610 ha         1 J3F       0.115500
     38 H6          19.4650    18.4840    13.9360 ha         1 J3F       0.125000
     39 H8          17.0310    15.4060    16.9320 ha         1 J3F       0.115500
     40 H13         18.1380    18.2870     9.4630 h1         1 J3F       0.043367
     41 H14         18.3040    19.7680     8.5440 h1         1 J3F       0.043367
     42 H15         19.0990    19.6250    10.1110 h1         1 J3F       0.043367
     43 H16         14.3220    19.5660    10.0120 ha         1 J3F       0.211000
     44 H18         19.2710    23.7430     8.1280 ha         1 J3F       0.118000
     45 H19         18.6070    21.8830     9.4420 ha         1 J3F       0.116000
     46 H22         19.9930    27.1560     7.7350 hc         1 J3F       0.043700
     47 H23         18.2860    27.4830     7.4400 hc         1 J3F       0.043700
     48 H24         18.7590    26.2230     8.5820 hc         1 J3F       0.043700
     49 H27         16.4040    27.0690     3.9020 hc         1 J3F       0.043700
     50 H28         17.7130    27.5700     4.9580 hc         1 J3F       0.043700
     51 H29         17.9630    26.2640     3.7880 hc         1 J3F       0.043700
     52 H2          18.0560    16.3430    19.1690 h1         1 J3F       0.115700
     53 H7          15.8760    16.3740    14.9960 ha         1 J3F       0.125000
     54 H10         18.3820    18.2230    11.9120 h1         1 J3F       0.043200
     55 H9          17.8600    19.7080    12.7270 h1         1 J3F       0.043200
     56 H12         15.6140    19.4970    11.7030 h1         1 J3F       0.063200
     57 H11         16.1260    18.0550    10.8180 h1         1 J3F       0.063200
     58 H17         15.2670    23.9910     6.5120 ha         1 J3F       0.138000
     59 H21         19.3180    26.1710     5.5680 h1         1 J3F       0.049700
     60 H20         19.7970    24.9270     6.6600 h1         1 J3F       0.049700
     61 H25         16.1780    24.9320     4.9240 h1         1 J3F       0.049700
     62 H26         15.9970    26.1810     6.1410 h1         1 J3F       0.049700
     63 N3          17.7510    25.0190     6.2780 nh         1 J3F      -0.805400
     64 C13         18.1980    19.3750     9.5500 c3         1 J3F       0.193100
@<TRIPOS>BOND
     1     1    15 1   
     2     1    16 1   
     3     1    34 1   
     4     2     3 1   
     5     2    17 1   
     6     2    35 1   
     7     2    36 1   
     8     3     4 ar  
     9     3     7 ar  
    10     4     5 ar  
    11     4    37 1   
    12     5     6 ar  
    13     5    38 1   
    14     6    21 ar  
    15     6    22 1   
    16     7    21 ar  
    17     7    39 1   
    18     8    26 2   
    19     8    27 1   
    20     8    43 1   
    21     9    28 1   
    22     9    29 ar  
    23     9    31 ar  
    24    10    11 ar  
    25    10    31 ar  
    26    10    63 1   
    27    11    12 ar  
    28    11    44 1   
    29    12    29 ar  
    30    12    45 1   
    31    13    32 1   
    32    13    46 1   
    33    13    47 1   
    34    13    48 1   
    35    14    33 1   
    36    14    49 1   
    37    14    50 1   
    38    14    51 1   
    39    15    18 1   
    40    15    19 2   
    41    16    17 1   
    42    16    20 2   
    43    17    18 1   
    44    17    52 1   
    45    21    53 1   
    46    22    23 1   
    47    23    24 1   
    48    23    54 1   
    49    23    55 1   
    50    24    25 1   
    51    24    56 1   
    52    24    57 1   
    53    25    26 1   
    54    25    64 1   
    55    26    29 1   
    56    27    28 1   
    57    27    30 2   
    58    31    58 1   
    59    32    59 1   
    60    32    60 1   
    61    32    63 1   
    62    33    61 1   
    63    33    62 1   
    64    33    63 1   
    65    40    64 1   
    66    41    64 1   
    67    42    64 1   
@<TRIPOS>SUBSTRUCTURE
     1 J3F         1 TEMP              0 ****  ****    0 ROOT
