@<TRIPOS>MOLECULE
J3G
   36    35     1     0     0
SMALL
No Charge or Current Charge


@<TRIPOS>ATOM
      1 C            6.3750    -0.6770     1.6550 c3         1 J3G      -0.092100
      2 C2           4.7770    -0.3890    -0.3450 c3         1 J3G      -0.137900
      3 O2          -2.4480    -0.1520    -0.5770 os         1 J3G      -0.437600
      4 C3           3.6470     0.4600    -0.9290 c          1 J3G       0.591100
      5 O3          -3.9350     1.0670    -1.8330 o          1 J3G      -0.487500
      6 C7          -3.7040     0.2220    -0.9780 c          1 J3G       0.591100
      7 C8          -4.7940    -0.5370    -0.2190 c3         1 J3G      -0.137900
      8 C9          -5.2990     0.2710     1.0000 c3         1 J3G      -0.068400
      9 C10         -6.3940    -0.4630     1.7980 c3         1 J3G      -0.092100
     10 C6          -1.3160     0.4850    -1.2060 c3         1 J3G       0.128100
     11 C5          -0.0110    -0.1100    -0.6140 c3         1 J3G       0.164300
     12 O4           0.1130    -1.5070    -0.9540 oh         1 J3G      -0.628000
     13 C4           1.2470     0.6480    -1.1040 c3         1 J3G       0.128100
     14 O1           2.4130    -0.0560    -0.6260 os         1 J3G      -0.437600
     15 O5           3.8300     1.4800    -1.5790 o          1 J3G      -0.487500
     16 C1           5.2420     0.1570     1.0260 c3         1 J3G      -0.068400
     17 H1           6.0510    -1.7120     1.8200 hc         1 J3G       0.035033
     18 H2           7.2560    -0.6900     1.0020 hc         1 J3G       0.035033
     19 H3           6.6710    -0.2520     2.6210 hc         1 J3G       0.035033
     20 H4           4.4120    -1.4110    -0.1860 hc         1 J3G       0.073200
     21 H5           5.6250    -0.3860    -1.0390 hc         1 J3G       0.073200
     22 H6          -5.6350    -0.7290    -0.8950 hc         1 J3G       0.073200
     23 H7          -4.3790    -1.4790     0.1580 hc         1 J3G       0.073200
     24 H8          -4.4550     0.4890     1.6670 hc         1 J3G       0.053450
     25 H9          -5.6920     1.2370     0.6590 hc         1 J3G       0.053450
     26 H10         -7.2670    -0.6630     1.1660 hc         1 J3G       0.035033
     27 H11         -6.0190    -1.4180     2.1850 hc         1 J3G       0.035033
     28 H12         -6.7200     0.1470     2.6490 hc         1 J3G       0.035033
     29 H13         -1.3290     0.3250    -2.2920 h1         1 J3G       0.053700
     30 H14         -1.3350     1.5670    -1.0200 h1         1 J3G       0.053700
     31 H15         -0.0570     0.0080     0.4780 h1         1 J3G       0.097700
     32 H16          1.0580    -1.7310    -0.7990 ho         1 J3G       0.439000
     33 H17          1.2440     0.6930    -2.2020 h1         1 J3G       0.053700
     34 H18          1.2250     1.6760    -0.7190 h1         1 J3G       0.053700
     35 H19          4.3890     0.1800     1.7170 hc         1 J3G       0.053450
     36 H20          5.5840     1.1930     0.9080 hc         1 J3G       0.053450
@<TRIPOS>BOND
     1     1    16 1   
     2     1    17 1   
     3     1    18 1   
     4     1    19 1   
     5     2     4 1   
     6     2    16 1   
     7     2    20 1   
     8     2    21 1   
     9     3     6 1   
    10     3    10 1   
    11     4    14 1   
    12     4    15 2   
    13     5     6 2   
    14     6     7 1   
    15     7     8 1   
    16     7    22 1   
    17     7    23 1   
    18     8     9 1   
    19     8    24 1   
    20     8    25 1   
    21     9    26 1   
    22     9    27 1   
    23     9    28 1   
    24    10    11 1   
    25    10    29 1   
    26    10    30 1   
    27    11    12 1   
    28    11    13 1   
    29    11    31 1   
    30    12    32 1   
    31    13    14 1   
    32    13    33 1   
    33    13    34 1   
    34    16    35 1   
    35    16    36 1   
@<TRIPOS>SUBSTRUCTURE
     1 J3G         1 TEMP              0 ****  ****    0 ROOT
