@<TRIPOS>MOLECULE
J3G
   36    35     1     0     0
SMALL
bcc


@<TRIPOS>ATOM
      1 C            7.1280    -0.8260     0.6730 c3         1 J3G      -0.092100
      2 C2           4.6790    -0.4590     0.2270 c3         1 J3G      -0.137900
      3 O2          -2.3610    -0.0730    -0.0430 os         1 J3G      -0.414400
      4 C3           3.5830     0.4930    -0.1660 c          1 J3G       0.640100
      5 O3          -3.7250     1.6260    -0.5240 o          1 J3G      -0.536500
      6 C7          -3.5620     0.4910    -0.1530 c          1 J3G       0.640100
      7 C8          -4.6560    -0.4650     0.2370 c3         1 J3G      -0.137900
      8 C9          -6.0390     0.1680     0.2630 c3         1 J3G      -0.068400
      9 C10         -7.1060    -0.8340     0.6780 c3         1 J3G      -0.092100
     10 C6          -1.2240     0.7220    -0.3690 c3         1 J3G       0.104900
     11 C5           0.0110    -0.1350    -0.1480 c3         1 J3G       0.141100
     12 O4           0.0090    -1.2980    -0.9340 oh         1 J3G      -0.565800
     13 C4           1.2450     0.7230    -0.3780 c3         1 J3G       0.104900
     14 O1           2.3830    -0.0690    -0.0480 os         1 J3G      -0.414400
     15 O5           3.7460     1.6260    -0.5450 o          1 J3G      -0.536500
     16 C1           6.0600     0.1760     0.2590 c3         1 J3G      -0.068400
     17 H1           6.9220    -1.2420     1.6600 hc         1 J3G       0.035033
     18 H2           7.1870    -1.6580    -0.0300 hc         1 J3G       0.035033
     19 H3           8.1110    -0.3560     0.7110 hc         1 J3G       0.035033
     20 H4           4.4290    -0.8870     1.2030 hc         1 J3G       0.073200
     21 H5           4.6610    -1.3010    -0.4740 hc         1 J3G       0.073200
     22 H6          -4.6350    -1.3070    -0.4630 hc         1 J3G       0.073200
     23 H7          -4.4090    -0.8900     1.2140 hc         1 J3G       0.073200
     24 H8          -6.0430     1.0140     0.9540 hc         1 J3G       0.053450
     25 H9          -6.2800     0.5720    -0.7220 hc         1 J3G       0.053450
     26 H10         -7.1590    -1.6710    -0.0200 hc         1 J3G       0.035033
     27 H11         -6.9020    -1.2450     1.6690 hc         1 J3G       0.035033
     28 H12         -8.0910    -0.3680     0.7100 hc         1 J3G       0.035033
     29 H13         -1.2820     1.0620    -1.4080 h1         1 J3G       0.053700
     30 H14         -1.1870     1.6080     0.2710 h1         1 J3G       0.053700
     31 H15          0.0150    -0.4740     0.8920 h1         1 J3G       0.097700
     32 H16         -0.0070    -1.0480    -1.8650 ho         1 J3G       0.400000
     33 H17          1.2990     1.0520    -1.4210 h1         1 J3G       0.053700
     34 H18          1.2080     1.6130     0.2540 h1         1 J3G       0.053700
     35 H19          6.0600     1.0200     0.9520 hc         1 J3G       0.053450
     36 H20          6.3020     0.5840    -0.7250 hc         1 J3G       0.053450
@<TRIPOS>BOND
     1     1    16 1   
     2     1    17 1   
     3     1    18 1   
     4     1    19 1   
     5     2     4 1   
     6     2    16 1   
     7     2    20 1   
     8     2    21 1   
     9     3     6 1   
    10     3    10 1   
    11     4    14 1   
    12     4    15 2   
    13     5     6 2   
    14     6     7 1   
    15     7     8 1   
    16     7    22 1   
    17     7    23 1   
    18     8     9 1   
    19     8    24 1   
    20     8    25 1   
    21     9    26 1   
    22     9    27 1   
    23     9    28 1   
    24    10    11 1   
    25    10    29 1   
    26    10    30 1   
    27    11    12 1   
    28    11    13 1   
    29    11    31 1   
    30    12    32 1   
    31    13    14 1   
    32    13    33 1   
    33    13    34 1   
    34    16    35 1   
    35    16    36 1   
@<TRIPOS>SUBSTRUCTURE
     1 J3G         1 TEMP              0 ****  ****    0 ROOT
