@<TRIPOS>MOLECULE
J3H
   38    40     1     0     0
SMALL
No Charge or Current Charge


@<TRIPOS>ATOM
      1 C1          -1.9930    -0.1830     0.2440 ca         1 J3H       0.164500
      2 C2          -3.1120     0.1730    -0.4470 ca         1 J3H      -0.399900
      3 C3          -4.3160    -0.4600    -0.1890 ca         1 J3H       0.460900
      4 N           -4.3910    -1.4250     0.7380 nb         1 J3H      -0.311000
      5 C           -3.2340    -1.7230     1.3840 ca         1 J3H       0.197900
      6 O            3.1530    -1.7600    -0.9650 o          1 J3H      -0.594100
      7 C10          3.6050    -0.7280    -0.4850 c          1 J3H       0.602100
      8 C11          5.0510    -0.6770     0.0530 c3         1 J3H      -0.152400
      9 C12          5.8940    -1.9570    -0.1490 c3         1 J3H      -0.077100
     10 C4          -2.7370     1.2130    -1.3630 cc         1 J3H       0.388800
     11 C5           0.4040     0.5950     0.2250 c6         1 J3H       0.082300
     12 C6           0.7290     1.8420     1.0930 c6         1 J3H      -0.087400
     13 C7           2.2110     1.8270     1.5490 c6         1 J3H      -0.099400
     14 C8           3.1640     1.6660     0.3390 c6         1 J3H       0.097000
     15 C9           1.4120     0.4730    -0.9480 c6         1 J3H       0.080000
     16 N1          -2.0220    -1.1470     1.1850 nb         1 J3H      -0.228000
     17 N2          -0.9970     0.6340    -0.2620 na         1 J3H      -0.022100
     18 N3          -1.4340     1.5100    -1.2580 nd         1 J3H      -0.530100
     19 N4          -5.4590    -0.1510    -0.8370 nv         1 J3H      -1.071900
     20 N5           2.8140     0.4470    -0.4430 n          1 J3H      -0.411800
     21 H1          -3.2840    -2.5060     2.1390 h5         1 J3H       0.047100
     22 H2           5.5460     0.1990    -0.3810 hc         1 J3H       0.054700
     23 H3           5.0060    -0.4010     1.1130 hc         1 J3H       0.054700
     24 H4           5.9890    -2.1950    -1.2160 hc         1 J3H       0.042367
     25 H5           6.9010    -1.8210     0.2620 hc         1 J3H       0.042367
     26 H6           5.4310    -2.8120     0.3580 hc         1 J3H       0.042367
     27 H7          -3.3180     1.7660    -2.0890 h4         1 J3H       0.044800
     28 H8           0.5230    -0.2980     0.8540 h1         1 J3H       0.094700
     29 H9           0.5330     2.7580     0.5180 hc         1 J3H       0.059200
     30 H10          0.0680     1.8730     1.9690 hc         1 J3H       0.059200
     31 H11          2.4480     2.7540     2.0890 hc         1 J3H       0.051700
     32 H12          2.3750     1.0020     2.2550 hc         1 J3H       0.051700
     33 H13          3.0680     2.5440    -0.3160 h1         1 J3H       0.053200
     34 H14          4.2020     1.6490     0.6930 h1         1 J3H       0.053200
     35 H15          1.1840    -0.4290    -1.5330 h1         1 J3H       0.077700
     36 H16          1.2940     1.3310    -1.6250 h1         1 J3H       0.077700
     37 H17         -5.5160     0.7380    -1.3240 hn         1 J3H       0.502000
     38 H18         -6.3310    -0.5090    -0.4550 hn         1 J3H       0.502000
@<TRIPOS>BOND
     1     1     2 ar  
     2     1    16 ar  
     3     1    17 1   
     4     2     3 ar  
     5     2    10 1   
     6     3     4 ar  
     7     3    19 1   
     8     4     5 ar  
     9     5    16 ar  
    10     5    21 1   
    11     6     7 2   
    12     7     8 1   
    13     7    20 1   
    14     8     9 1   
    15     8    22 1   
    16     8    23 1   
    17     9    24 1   
    18     9    25 1   
    19     9    26 1   
    20    10    18 2   
    21    10    27 1   
    22    11    12 1   
    23    11    15 1   
    24    11    17 1   
    25    11    28 1   
    26    12    13 1   
    27    12    29 1   
    28    12    30 1   
    29    13    14 1   
    30    13    31 1   
    31    13    32 1   
    32    14    20 1   
    33    14    33 1   
    34    14    34 1   
    35    15    20 1   
    36    15    35 1   
    37    15    36 1   
    38    17    18 1   
    39    19    37 1   
    40    19    38 1   
@<TRIPOS>SUBSTRUCTURE
     1 J3H         1 TEMP              0 ****  ****    0 ROOT
