@<TRIPOS>MOLECULE
J3H
   38    40     1     0     0
SMALL
abcg2


@<TRIPOS>ATOM
      1 C1          -1.8980    -0.1760     0.2120 ca         1 J3H       0.164500
      2 C2          -3.0620     0.2510    -0.4270 ca         1 J3H      -0.399900
      3 C3          -4.2130    -0.5360    -0.2020 ca         1 J3H       0.460900
      4 N           -4.1090    -1.6100     0.5850 nb         1 J3H      -0.311000
      5 C           -2.9250    -1.8940     1.1280 ca         1 J3H       0.197900
      6 O            2.9710    -1.7120    -0.9720 o          1 J3H      -0.594100
      7 C10          3.4410    -0.6870    -0.4960 c          1 J3H       0.602100
      8 C11          4.8340    -0.6730     0.1060 c3         1 J3H      -0.152400
      9 C12          5.5290    -2.0210     0.0260 c3         1 J3H      -0.077100
     10 C4          -2.6720     1.4110    -1.1370 cc         1 J3H       0.388800
     11 C5           0.4570     0.6810     0.2830 c6         1 J3H       0.082300
     12 C6           0.8280     1.9290     1.0800 c6         1 J3H      -0.087400
     13 C7           2.3120     1.9180     1.4300 c6         1 J3H      -0.099400
     14 C8           3.1660     1.6950     0.1890 c6         1 J3H       0.097000
     15 C9           1.3720     0.5170    -0.9340 c6         1 J3H       0.080000
     16 N1          -1.7840    -1.2480     1.0040 nb         1 J3H      -0.228000
     17 N2          -0.9310     0.6990    -0.1250 na         1 J3H      -0.022100
     18 N3          -1.4020     1.6570    -0.9410 nd         1 J3H      -0.530100
     19 N4          -5.3960    -0.2560    -0.7440 nv         1 J3H      -1.071900
     20 N5           2.7520     0.4810    -0.4960 n          1 J3H      -0.411800
     21 H1          -2.9060    -2.7780     1.7570 h5         1 J3H       0.047100
     22 H2           5.4380     0.0850    -0.4000 hc         1 J3H       0.054700
     23 H3           4.7700    -0.3520     1.1490 hc         1 J3H       0.054700
     24 H4           5.6540    -2.3530    -1.0040 hc         1 J3H       0.042367
     25 H5           6.5200    -1.9480     0.4730 hc         1 J3H       0.042367
     26 H6           4.9790    -2.7930     0.5630 hc         1 J3H       0.042367
     27 H7          -3.2630     2.0570    -1.7680 h4         1 J3H       0.044800
     28 H8           0.5650    -0.2010     0.9200 h1         1 J3H       0.094700
     29 H9           0.5970     2.8180     0.4850 hc         1 J3H       0.059200
     30 H10          0.2200     1.9830     1.9850 hc         1 J3H       0.059200
     31 H11          2.5920     2.8640     1.8970 hc         1 J3H       0.051700
     32 H12          2.5210     1.1270     2.1570 hc         1 J3H       0.051700
     33 H13          3.0450     2.5350    -0.5030 h1         1 J3H       0.053200
     34 H14          4.2200     1.6530     0.4480 h1         1 J3H       0.053200
     35 H15          1.1300    -0.3940    -1.4750 h1         1 J3H       0.077700
     36 H16          1.2350     1.3620    -1.6160 h1         1 J3H       0.077700
     37 H17         -5.5380     0.5540    -1.3220 hn         1 J3H       0.502000
     38 H18         -6.1930    -0.8350    -0.5400 hn         1 J3H       0.502000
@<TRIPOS>BOND
     1     1     2 ar  
     2     1    16 ar  
     3     1    17 1   
     4     2     3 ar  
     5     2    10 1   
     6     3     4 ar  
     7     3    19 1   
     8     4     5 ar  
     9     5    16 ar  
    10     5    21 1   
    11     6     7 2   
    12     7     8 1   
    13     7    20 1   
    14     8     9 1   
    15     8    22 1   
    16     8    23 1   
    17     9    24 1   
    18     9    25 1   
    19     9    26 1   
    20    10    18 2   
    21    10    27 1   
    22    11    12 1   
    23    11    15 1   
    24    11    17 1   
    25    11    28 1   
    26    12    13 1   
    27    12    29 1   
    28    12    30 1   
    29    13    14 1   
    30    13    31 1   
    31    13    32 1   
    32    14    20 1   
    33    14    33 1   
    34    14    34 1   
    35    15    20 1   
    36    15    35 1   
    37    15    36 1   
    38    17    18 1   
    39    19    37 1   
    40    19    38 1   
@<TRIPOS>SUBSTRUCTURE
     1 J3H         1 TEMP              0 ****  ****    0 ROOT
