@<TRIPOS>MOLECULE
J3J
   25    24     1     0     0
SMALL
No Charge or Current Charge


@<TRIPOS>ATOM
      1 O1           2.3390     1.8620    -0.0030 oh         1 J3J      -0.626500
      2 C1           2.0790     0.9910    -1.1200 c3         1 J3J       0.158600
      3 C2           1.3080    -0.3070    -0.7250 c3         1 J3J       0.179300
      4 C3           2.1310    -1.2930     0.1730 c3         1 J3J       0.158600
      5 O2           2.1500    -0.9160     1.5640 oh         1 J3J      -0.626500
      6 O3           0.0660     0.0720    -0.0750 os         1 J3J      -0.424100
      7 C4          -0.9110    -0.8730     0.0960 c          1 J3J       0.594100
      8 O4          -0.8790    -2.0020    -0.3770 o          1 J3J      -0.503000
      9 C5          -2.1340    -0.2950     0.8120 c3         1 J3J      -0.139400
     10 C6          -3.1490     0.3000    -0.1930 c3         1 J3J      -0.068400
     11 C7          -4.3940     0.8980     0.4910 c3         1 J3J      -0.091100
     12 H1           2.7850     2.6610    -0.3590 ho         1 J3J       0.437000
     13 H2           1.4860     1.5260    -1.8750 h1         1 J3J       0.024450
     14 H3           3.0240     0.7050    -1.6010 h1         1 J3J       0.024450
     15 H4           1.0910    -0.8290    -1.6670 h1         1 J3J       0.063700
     16 H5           1.7040    -2.2990     0.0720 h1         1 J3J       0.024450
     17 H6           3.1570    -1.3480    -0.2160 h1         1 J3J       0.024450
     18 H7           2.7230    -1.5640     2.0300 ho         1 J3J       0.437000
     19 H8          -2.6220    -1.0910     1.3870 hc         1 J3J       0.073700
     20 H9          -1.8080     0.5150     1.4750 hc         1 J3J       0.073700
     21 H10         -2.6580     1.0800    -0.7880 hc         1 J3J       0.052200
     22 H11         -3.4680    -0.4820    -0.8940 hc         1 J3J       0.052200
     23 H12         -4.9270     0.1310     1.0660 hc         1 J3J       0.034033
     24 H13         -4.1110     1.7090     1.1730 hc         1 J3J       0.034033
     25 H14         -5.0830     1.3050    -0.2590 hc         1 J3J       0.034033
@<TRIPOS>BOND
     1     1     2 1   
     2     1    12 1   
     3     2     3 1   
     4     2    13 1   
     5     2    14 1   
     6     3     4 1   
     7     3     6 1   
     8     3    15 1   
     9     4     5 1   
    10     4    16 1   
    11     4    17 1   
    12     5    18 1   
    13     6     7 1   
    14     7     8 2   
    15     7     9 1   
    16     9    10 1   
    17     9    19 1   
    18     9    20 1   
    19    10    11 1   
    20    10    21 1   
    21    10    22 1   
    22    11    23 1   
    23    11    24 1   
    24    11    25 1   
@<TRIPOS>SUBSTRUCTURE
     1 J3J         1 TEMP              0 ****  ****    0 ROOT
