@<TRIPOS>MOLECULE
J3J
   25    24     1     0     0
SMALL
bcc


@<TRIPOS>ATOM
      1 O1           2.7200     1.5470     0.4100 oh         1 J3J      -0.564300
      2 C1           2.3910     0.9850    -0.8340 c3         1 J3J       0.135400
      3 C2           1.4520    -0.1930    -0.6850 c3         1 J3J       0.156100
      4 C3           2.0010    -1.3890     0.0740 c3         1 J3J       0.135400
      5 O2           2.1450    -1.1000     1.4400 oh         1 J3J      -0.564300
      6 O3           0.2460     0.2950    -0.0790 os         1 J3J      -0.400900
      7 C4          -0.9090    -0.2960    -0.3630 c          1 J3J       0.643100
      8 O4          -1.0160    -1.2370    -1.1090 o          1 J3J      -0.552000
      9 C5          -2.0510     0.3580     0.3670 c3         1 J3J      -0.139400
     10 C6          -3.4220    -0.1300    -0.0730 c3         1 J3J      -0.068400
     11 C7          -4.5370     0.5720     0.6890 c3         1 J3J      -0.091100
     12 H1           3.2120     2.3550     0.2420 ho         1 J3J       0.398000
     13 H2           1.9110     1.7170    -1.4960 h1         1 J3J       0.024450
     14 H3           3.2770     0.6160    -1.3700 h1         1 J3J       0.024450
     15 H4           1.2440    -0.5410    -1.7020 h1         1 J3J       0.063700
     16 H5           1.3260    -2.2390    -0.0860 h1         1 J3J       0.024450
     17 H6           2.9540    -1.6570    -0.4030 h1         1 J3J       0.024450
     18 H7           2.3610    -1.9220     1.8880 ho         1 J3J       0.398000
     19 H8          -1.9110     0.1780     1.4390 hc         1 J3J       0.073700
     20 H9          -1.9710     1.4420     0.2420 hc         1 J3J       0.073700
     21 H10         -3.5470     0.0420    -1.1450 hc         1 J3J       0.052200
     22 H11         -3.4980    -1.2090     0.0770 hc         1 J3J       0.052200
     23 H12         -4.4580     0.3910     1.7630 hc         1 J3J       0.034033
     24 H13         -4.5040     1.6520     0.5350 hc         1 J3J       0.034033
     25 H14         -5.5170     0.2200     0.3660 hc         1 J3J       0.034033
@<TRIPOS>BOND
     1     1     2 1   
     2     1    12 1   
     3     2     3 1   
     4     2    13 1   
     5     2    14 1   
     6     3     4 1   
     7     3     6 1   
     8     3    15 1   
     9     4     5 1   
    10     4    16 1   
    11     4    17 1   
    12     5    18 1   
    13     6     7 1   
    14     7     8 2   
    15     7     9 1   
    16     9    10 1   
    17     9    19 1   
    18     9    20 1   
    19    10    11 1   
    20    10    21 1   
    21    10    22 1   
    22    11    23 1   
    23    11    24 1   
    24    11    25 1   
@<TRIPOS>SUBSTRUCTURE
     1 J3J         1 TEMP              0 ****  ****    0 ROOT
