@<TRIPOS>MOLECULE
J3K
   14    13     1     0     0
SMALL
abcg2


@<TRIPOS>ATOM
      1 N           -8.1650    17.8580    15.4930 n8         1 J3K      -1.027200
      2 C           -8.9960    18.0990    14.3220 c3         1 J3K       0.106800
      3 C1         -10.1520    19.0160    14.7160 c3         1 J3K       0.175300
      4 C3         -11.1850    19.1330    13.6140 c3         1 J3K      -0.093100
      5 O1         -10.7630    18.5120    15.8840 oh         1 J3K      -0.667000
      6 H3          -7.6010    17.0290    15.3680 hn         1 J3K       0.404500
      7 H4          -7.5220    18.6250    15.6370 hn         1 J3K       0.404500
      8 H1          -9.4020    17.1400    13.9890 h1         1 J3K       0.039200
      9 H2          -8.4570    18.5320    13.4700 h1         1 J3K       0.039200
     10 H5          -9.7350    20.0190    14.9100 h1         1 J3K       0.024700
     11 H6         -12.0090    19.7840    13.9090 hc         1 J3K       0.041033
     12 H31        -10.7350    19.5580    12.7160 hc         1 J3K       0.041033
     13 H32        -11.5970    18.1550    13.3570 hc         1 J3K       0.041033
     14 H7         -10.0250    18.1340    16.3900 ho         1 J3K       0.468000
@<TRIPOS>BOND
     1     1     2 1   
     2     1     6 1   
     3     1     7 1   
     4     2     3 1   
     5     2     8 1   
     6     2     9 1   
     7     3     4 1   
     8     3     5 1   
     9     3    10 1   
    10     4    11 1   
    11     4    12 1   
    12     4    13 1   
    13     5    14 1   
@<TRIPOS>SUBSTRUCTURE
     1 J3K         1 TEMP              0 ****  ****    0 ROOT
