@<TRIPOS>MOLECULE
J3K
   14    13     1     0     0
SMALL
No Charge or Current Charge


@<TRIPOS>ATOM
      1 N           -8.2310    17.7200    15.5550 n8         1 J3K      -1.027200
      2 C           -8.9770    18.1220    14.3250 c3         1 J3K       0.106800
      3 C1         -10.1430    19.0870    14.6700 c3         1 J3K       0.175300
      4 C3         -11.2630    19.1180    13.6120 c3         1 J3K      -0.093100
      5 O1         -10.6460    18.6400    15.9230 oh         1 J3K      -0.667000
      6 H3          -7.5240    17.0140    15.3020 hn         1 J3K       0.404500
      7 H4          -7.6520    18.5110    15.8720 hn         1 J3K       0.404500
      8 H1          -9.3870    17.2130    13.8620 h1         1 J3K       0.039200
      9 H2          -8.2900    18.5930    13.6080 h1         1 J3K       0.039200
     10 H5          -9.7320    20.1000    14.7800 h1         1 J3K       0.024700
     11 H6         -12.0550    19.8150    13.9110 hc         1 J3K       0.041033
     12 H31        -10.8650    19.4460    12.6450 hc         1 J3K       0.041033
     13 H32        -11.7080    18.1240    13.4820 hc         1 J3K       0.041033
     14 H7          -9.8730    18.0920    16.2280 ho         1 J3K       0.468000
@<TRIPOS>BOND
     1     1     2 1   
     2     1     6 1   
     3     1     7 1   
     4     2     3 1   
     5     2     8 1   
     6     2     9 1   
     7     3     4 1   
     8     3     5 1   
     9     3    10 1   
    10     4    11 1   
    11     4    12 1   
    12     4    13 1   
    13     5    14 1   
@<TRIPOS>SUBSTRUCTURE
     1 J3K         1 TEMP              0 ****  ****    0 ROOT
