@<TRIPOS>MOLECULE
J3L
   52    52     1     0     0
SMALL
No Charge or Current Charge


@<TRIPOS>ATOM
      1 C13         36.0690   -21.6310    34.7450 c3         1 J3L       0.083300
      2 C14         33.5290   -22.2560    34.8320 c5         1 J3L       0.024700
      3 C15         32.9520   -21.0610    35.6590 c3         1 J3L      -0.054400
      4 C16         32.2520   -21.4210    37.0110 c3         1 J3L       0.038000
      5 C24         32.5680   -22.7550    33.7280 c          1 J3L       0.575100
      6 C01         35.8270   -15.9840    34.7420 c3         1 J3L      -0.090100
      7 C02         34.4760   -15.7650    35.4540 c3         1 J3L      -0.070400
      8 C03         33.2540   -15.8380    34.5110 c3         1 J3L      -0.048200
      9 C04         33.0700   -17.1970    33.8640 c2         1 J3L      -0.177200
     10 C05         32.3800   -17.4260    32.7230 ce         1 J3L      -0.213000
     11 C06         32.1800   -18.7400    32.0920 ce         1 J3L      -0.101000
     12 C07         32.7940   -19.9040    32.4550 cf         1 J3L      -0.302200
     13 C08         32.5360   -21.2240    31.7970 c          1 J3L       0.620300
     14 C09         33.2430   -22.4340    32.4020 c5         1 J3L      -0.392700
     15 C10         34.6820   -22.0940    32.7200 c          1 J3L       0.569000
     16 C18         31.5790   -20.1580    37.6770 c3         1 J3L      -0.043700
     17 C19         30.8360   -20.4870    39.0010 c3         1 J3L      -0.077600
     18 C20         32.5370   -18.9570    37.9050 c3         1 J3L      -0.077600
     19 C21         33.2640   -22.1170    38.0190 c          1 J3L       0.689000
     20 N12         34.7700   -21.9190    34.1050 n          1 J3L      -0.400800
     21 O11         35.6290   -22.0790    31.9520 o          1 J3L      -0.567000
     22 O17         31.1840   -22.3480    36.6920 oh         1 J3L      -0.702000
     23 O23         34.4150   -21.7120    38.1050 o          1 J3L      -0.713500
     24 O25         31.6000   -23.4910    33.8530 o          1 J3L      -0.469100
     25 O26         31.8120   -21.3090    30.8170 o          1 J3L      -0.526100
     26 H1          35.9590   -21.6150    35.8360 h1         1 J3L       0.054367
     27 H2          36.7980   -22.4060    34.4740 h1         1 J3L       0.054367
     28 H3          36.4390   -20.6540    34.4090 h1         1 J3L       0.054367
     29 H4          33.7150   -23.1040    35.5030 h1         1 J3L       0.112700
     30 H5          33.7720   -20.3670    35.8750 hc         1 J3L       0.045700
     31 H6          32.2400   -20.4930    35.0490 hc         1 J3L       0.045700
     32 H8          36.6540   -15.8840    35.4560 hc         1 J3L       0.033033
     33 H9          35.8800   -16.9850    34.2980 hc         1 J3L       0.033033
     34 H10         35.9700   -15.2440    33.9460 hc         1 J3L       0.033033
     35 H11         34.4890   -14.7800    35.9370 hc         1 J3L       0.040200
     36 H12         34.3640   -16.5050    36.2560 hc         1 J3L       0.040200
     37 H13         33.3540   -15.0640    33.7400 hc         1 J3L       0.043700
     38 H14         32.3540   -15.5850    35.0850 hc         1 J3L       0.043700
     39 H15         33.5370   -18.0130    34.4140 ha         1 J3L       0.182000
     40 H16         31.9040   -16.5860    32.2130 ha         1 J3L       0.168000
     41 H17         31.4660   -18.7610    31.2630 ha         1 J3L       0.183000
     42 H18         33.5180   -19.8650    33.2570 ha         1 J3L       0.195000
     43 H19         33.1480   -23.2560    31.6910 hc         1 J3L       0.117700
     44 H20         30.8130   -19.7990    36.9780 hc         1 J3L       0.023700
     45 H21         30.3060   -19.6030    39.3740 hc         1 J3L       0.026200
     46 H22         30.0920   -21.2790    38.8570 hc         1 J3L       0.026200
     47 H23         31.5380   -20.8110    39.7780 hc         1 J3L       0.026200
     48 H24         32.0040   -18.1260    38.3820 hc         1 J3L       0.026200
     49 H25         33.3760   -19.2320    38.5540 hc         1 J3L       0.026200
     50 H26         32.9370   -18.5760    36.9590 hc         1 J3L       0.026200
     51 H27         31.2980   -23.0770    37.3520 ho         1 J3L       0.478000
     52 O22         32.8850   -23.1570    38.5490 o          1 J3L      -0.713500
@<TRIPOS>BOND
     1     1    20 1   
     2     1    26 1   
     3     1    27 1   
     4     1    28 1   
     5     2     3 1   
     6     2     5 1   
     7     2    20 1   
     8     2    29 1   
     9     3     4 1   
    10     3    30 1   
    11     3    31 1   
    12     4    16 1   
    13     4    19 1   
    14     4    22 1   
    15     5    14 1   
    16     5    24 2   
    17     6     7 1   
    18     6    32 1   
    19     6    33 1   
    20     6    34 1   
    21     7     8 1   
    22     7    35 1   
    23     7    36 1   
    24     8     9 1   
    25     8    37 1   
    26     8    38 1   
    27     9    10 2   
    28     9    39 1   
    29    10    11 1   
    30    10    40 1   
    31    11    12 2   
    32    11    41 1   
    33    12    13 1   
    34    12    42 1   
    35    13    14 1   
    36    13    25 2   
    37    14    15 1   
    38    14    43 1   
    39    15    20 1   
    40    15    21 2   
    41    16    17 1   
    42    16    18 1   
    43    16    44 1   
    44    17    45 1   
    45    17    46 1   
    46    17    47 1   
    47    18    48 1   
    48    18    49 1   
    49    18    50 1   
    50    19    23 1   
    51    19    52 1   
    52    22    51 1   
@<TRIPOS>SUBSTRUCTURE
     1 J3L         1 TEMP              0 ****  ****    0 ROOT
