@<TRIPOS>MOLECULE
J3L
   52    52     1     0     0
SMALL
abcg2


@<TRIPOS>ATOM
      1 C13         35.7850   -22.2130    35.2690 c3         1 J3L       0.083300
      2 C14         33.2530   -22.2290    35.0040 c5         1 J3L       0.024700
      3 C15         32.9430   -21.1590    36.0670 c3         1 J3L      -0.054400
      4 C16         32.2110   -21.7120    37.2930 c3         1 J3L       0.038000
      5 C24         32.3850   -22.1160    33.7590 c          1 J3L       0.575100
      6 C01         35.4950   -15.3640    34.0110 c3         1 J3L      -0.090100
      7 C02         34.1710   -15.1700    34.7340 c3         1 J3L      -0.070400
      8 C03         32.9510   -15.3880    33.8310 c3         1 J3L      -0.048200
      9 C04         32.8720   -16.7840    33.3180 c2         1 J3L      -0.177200
     10 C05         32.8830   -17.1240    32.0230 ce         1 J3L      -0.213000
     11 C06         32.8220   -18.4810    31.5130 ce         1 J3L      -0.101000
     12 C07         33.1010   -19.6010    32.2000 cf         1 J3L      -0.302200
     13 C08         32.9750   -20.9320    31.6000 c          1 J3L       0.620300
     14 C09         33.2800   -22.0920    32.5350 c5         1 J3L      -0.392700
     15 C10         34.6780   -22.0320    33.1150 c          1 J3L       0.569000
     16 C18         31.7650   -20.5610    38.2310 c3         1 J3L      -0.043700
     17 C19         31.1100   -21.0920    39.5050 c3         1 J3L      -0.077600
     18 C20         32.8470   -19.5470    38.5960 c3         1 J3L      -0.077600
     19 C21         33.1080   -22.7390    38.0440 c          1 J3L       0.689000
     20 N12         34.5960   -22.1280    34.4500 n          1 J3L      -0.400800
     21 O11         35.7050   -21.9270    32.4690 o          1 J3L      -0.567000
     22 O17         31.0590   -22.4020    36.8670 oh         1 J3L      -0.702000
     23 O23         34.2420   -22.3860    38.4070 o          1 J3L      -0.713500
     24 O25         31.1890   -22.0330    33.7320 o          1 J3L      -0.469100
     25 O26         32.6500   -21.1310    30.4500 o          1 J3L      -0.526100
     26 H1          35.4990   -22.3690    36.3050 h1         1 J3L       0.054367
     27 H2          36.4120   -23.0480    34.9540 h1         1 J3L       0.054367
     28 H3          36.3740   -21.2980    35.2090 h1         1 J3L       0.054367
     29 H4          33.1020   -23.2340    35.4200 h1         1 J3L       0.112700
     30 H5          33.8810   -20.7000    36.3780 hc         1 J3L       0.045700
     31 H6          32.3500   -20.3510    35.6250 hc         1 J3L       0.045700
     32 H8          36.3370   -15.1410    34.6670 hc         1 J3L       0.033033
     33 H9          35.6170   -16.3880    33.6570 hc         1 J3L       0.033033
     34 H10         35.5690   -14.7060    33.1430 hc         1 J3L       0.033033
     35 H11         34.1180   -14.1580    35.1420 hc         1 J3L       0.040200
     36 H12         34.1130   -15.8480    35.5910 hc         1 J3L       0.040200
     37 H13         32.9730   -14.6810    32.9970 hc         1 J3L       0.043700
     38 H14         32.0470   -15.1730    34.4100 hc         1 J3L       0.043700
     39 H15         32.8000   -17.5610    34.0750 ha         1 J3L       0.182000
     40 H16         32.9100   -16.3370    31.2760 ha         1 J3L       0.168000
     41 H17         32.5340   -18.5810    30.4710 ha         1 J3L       0.183000
     42 H18         33.4370   -19.5390    33.2300 ha         1 J3L       0.195000
     43 H19         33.1620   -23.0330    31.9860 hc         1 J3L       0.117700
     44 H20         30.9950   -20.0190    37.6670 hc         1 J3L       0.023700
     45 H21         30.6570   -20.2740    40.0670 hc         1 J3L       0.026200
     46 H22         30.3270   -21.8190    39.2930 hc         1 J3L       0.026200
     47 H23         31.8430   -21.5660    40.1630 hc         1 J3L       0.026200
     48 H24         32.4160   -18.7570    39.2140 hc         1 J3L       0.026200
     49 H25         33.6540   -20.0080    39.1640 hc         1 J3L       0.026200
     50 H26         33.2820   -19.0650    37.7200 hc         1 J3L       0.026200
     51 H27         31.1830   -23.2770    37.2860 ho         1 J3L       0.478000
     52 O22         32.5770   -23.8610    38.2150 o          1 J3L      -0.713500
@<TRIPOS>BOND
     1     1    20 1   
     2     1    26 1   
     3     1    27 1   
     4     1    28 1   
     5     2     3 1   
     6     2     5 1   
     7     2    20 1   
     8     2    29 1   
     9     3     4 1   
    10     3    30 1   
    11     3    31 1   
    12     4    16 1   
    13     4    19 1   
    14     4    22 1   
    15     5    14 1   
    16     5    24 2   
    17     6     7 1   
    18     6    32 1   
    19     6    33 1   
    20     6    34 1   
    21     7     8 1   
    22     7    35 1   
    23     7    36 1   
    24     8     9 1   
    25     8    37 1   
    26     8    38 1   
    27     9    10 2   
    28     9    39 1   
    29    10    11 1   
    30    10    40 1   
    31    11    12 2   
    32    11    41 1   
    33    12    13 1   
    34    12    42 1   
    35    13    14 1   
    36    13    25 2   
    37    14    15 1   
    38    14    43 1   
    39    15    20 1   
    40    15    21 2   
    41    16    17 1   
    42    16    18 1   
    43    16    44 1   
    44    17    45 1   
    45    17    46 1   
    46    17    47 1   
    47    18    48 1   
    48    18    49 1   
    49    18    50 1   
    50    19    23 1   
    51    19    52 1   
    52    22    51 1   
@<TRIPOS>SUBSTRUCTURE
     1 J3L         1 TEMP              0 ****  ****    0 ROOT
