@<TRIPOS>MOLECULE
J3M
   63    67     1     0     0
SMALL
No Charge or Current Charge


@<TRIPOS>ATOM
      1 C10          0.3150     1.2290     0.4250 ca         1 J3M      -0.002300
      2 C13         -1.8080    -0.7340     2.0100 ca         1 J3M      -0.049000
      3 C15         -3.7120    -2.0330     1.2240 ca         1 J3M       0.129100
      4 C17         -5.7560    -3.0700     0.3990 c6         1 J3M       0.165600
      5 C20         -3.0990    -2.1710    -0.0420 ca         1 J3M      -0.183300
      6 C21         -1.8460    -1.5740    -0.2730 ca         1 J3M      -0.053000
      7 C24          3.4010    -1.6860    -0.1750 cp         1 J3M      -0.113500
      8 C26          5.5210    -2.7390     0.4900 ca         1 J3M      -0.124000
      9 C28          4.1740    -3.7510    -1.2620 ca         1 J3M      -0.124000
     10 C01         -3.1290     2.1940    -1.3790 c3         1 J3M      -0.102433
     11 C03         -0.8270     1.7040    -2.4150 c3         1 J3M      -0.102433
     12 C04         -1.7880     4.0480    -2.4830 c3         1 J3M      -0.102433
     13 O05         -1.0700     3.1330    -0.4160 os         1 J3M      -0.443000
     14 C06         -0.8910     2.1660     0.6620 c3         1 J3M       0.046600
     15 C07         -0.7430     2.9450     1.9830 c          1 J3M       0.717000
     16 O08         -0.5100     2.3390     3.0210 o          1 J3M      -0.708500
     17 O09         -0.8520     4.1590     1.9080 o          1 J3M      -0.708500
     18 C11          0.1330    -0.1860     0.4700 cp         1 J3M       0.359500
     19 C12         -1.1880    -0.8350     0.7400 cp         1 J3M      -0.147500
     20 C14         -3.0590    -1.3290     2.2470 ca         1 J3M      -0.154000
     21 O16         -4.9390    -2.6040     1.4940 os         1 J3M      -0.351100
     22 C18         -4.9080    -3.8610    -0.6140 c6         1 J3M      -0.112400
     23 C19         -3.7820    -2.9610    -1.1600 c6         1 J3M      -0.016100
     24 N22          1.1220    -1.0630     0.2110 nb         1 J3M      -0.668000
     25 C23          2.3700    -0.6090    -0.0130 cp         1 J3M       0.382500
     26 C25          4.5650    -1.7190     0.6350 ca         1 J3M      -0.088000
     27 C27          5.3270    -3.7540    -0.4610 ca         1 J3M      -0.120000
     28 C29          3.2190    -2.7310    -1.1170 ca         1 J3M      -0.088000
     29 C30          2.6620     0.7840    -0.0870 ca         1 J3M      -0.073000
     30 C31          3.9610     1.2480    -0.4070 ca         1 J3M      -0.117000
     31 C32          4.2360     2.6200    -0.4760 ca         1 J3M      -0.112000
     32 C33          3.2180     3.5480    -0.2320 ca         1 J3M      -0.139000
     33 C34          1.9210     3.1060     0.0700 ca         1 J3M      -0.041000
     34 C35          1.6220     1.7220     0.1400 ca         1 J3M       0.000000
     35 H1          -1.3140    -0.1930     2.8140 ha         1 J3M       0.172000
     36 H2          -6.5650    -3.6970     0.7990 h1         1 J3M       0.042700
     37 H3          -6.2100    -2.2000    -0.0970 h1         1 J3M       0.042700
     38 H4          -1.3760    -1.6740    -1.2490 ha         1 J3M       0.110000
     39 H5           6.4090    -2.7450     1.1180 ha         1 J3M       0.102500
     40 H6           4.0190    -4.5400    -1.9950 ha         1 J3M       0.102500
     41 H7          -3.7020     2.1170    -2.3110 hc         1 J3M       0.034478
     42 H8          -3.0980     1.1920    -0.9350 hc         1 J3M       0.034478
     43 H9          -3.6740     2.8610    -0.7000 hc         1 J3M       0.034478
     44 H10         -1.1740     1.5880    -3.4480 hc         1 J3M       0.034478
     45 H11          0.2210     2.0260    -2.4470 hc         1 J3M       0.034478
     46 H12         -0.8800     0.7160    -1.9480 hc         1 J3M       0.034478
     47 H13         -2.3790     4.8030    -1.9510 hc         1 J3M       0.034478
     48 H14         -0.7870     4.4600    -2.6620 hc         1 J3M       0.034478
     49 H15         -2.2610     3.8710    -3.4560 hc         1 J3M       0.034478
     50 H16         -1.8070     1.5840     0.7910 h1         1 J3M       0.041700
     51 H18         -3.5260    -1.2400     3.2240 ha         1 J3M       0.123000
     52 H19         -4.4780    -4.7440    -0.1210 hc         1 J3M       0.047200
     53 H20         -5.5360    -4.2280    -1.4360 hc         1 J3M       0.047200
     54 H21         -4.1990    -2.2550    -1.8920 hc         1 J3M       0.044200
     55 H22         -3.0470    -3.5730    -1.7020 hc         1 J3M       0.044200
     56 H23          4.7220    -0.9460     1.3850 ha         1 J3M       0.122500
     57 H24          6.0660    -4.5440    -0.5720 ha         1 J3M       0.099000
     58 H25          2.3280    -2.7420    -1.7430 ha         1 J3M       0.122500
     59 H26          4.7670     0.5540    -0.6230 ha         1 J3M       0.105000
     60 H27          5.2380     2.9630    -0.7220 ha         1 J3M       0.095000
     61 H28          3.4290     4.6130    -0.2850 ha         1 J3M       0.105000
     62 H29          1.1620     3.8620     0.2410 ha         1 J3M       0.168000
     63 C02         -1.7040     2.7390    -1.6650 c3         1 J3M       0.197000
@<TRIPOS>BOND
     1     1    14 1   
     2     1    18 ar  
     3     1    34 ar  
     4     2    19 ar  
     5     2    20 ar  
     6     2    35 1   
     7     3     5 ar  
     8     3    20 ar  
     9     3    21 1   
    10     4    21 1   
    11     4    22 1   
    12     4    36 1   
    13     4    37 1   
    14     5     6 ar  
    15     5    23 1   
    16     6    19 ar  
    17     6    38 1   
    18     7    25 1   
    19     7    26 ar  
    20     7    28 ar  
    21     8    26 ar  
    22     8    27 ar  
    23     8    39 1   
    24     9    27 ar  
    25     9    28 ar  
    26     9    40 1   
    27    10    41 1   
    28    10    42 1   
    29    10    43 1   
    30    10    63 1   
    31    11    44 1   
    32    11    45 1   
    33    11    46 1   
    34    11    63 1   
    35    12    47 1   
    36    12    48 1   
    37    12    49 1   
    38    12    63 1   
    39    13    14 1   
    40    13    63 1   
    41    14    15 1   
    42    14    50 1   
    43    15    16 1   
    44    15    17 1   
    45    18    19 1   
    46    18    24 ar  
    47    20    51 1   
    48    22    23 1   
    49    22    52 1   
    50    22    53 1   
    51    23    54 1   
    52    23    55 1   
    53    24    25 ar  
    54    25    29 ar  
    55    26    56 1   
    56    27    57 1   
    57    28    58 1   
    58    29    30 ar  
    59    29    34 ar  
    60    30    31 ar  
    61    30    59 1   
    62    31    32 ar  
    63    31    60 1   
    64    32    33 ar  
    65    32    61 1   
    66    33    34 ar  
    67    33    62 1   
@<TRIPOS>SUBSTRUCTURE
     1 J3M         1 TEMP              0 ****  ****    0 ROOT
