@<TRIPOS>MOLECULE
J3M
   63    67     1     0     0
SMALL
abcg2


@<TRIPOS>ATOM
      1 C10          0.3690     1.2240     0.3230 ca         1 J3M      -0.002300
      2 C13         -1.9950    -0.4560     1.6340 ca         1 J3M      -0.049000
      3 C15         -3.6430    -2.0480     0.8890 ca         1 J3M       0.129100
      4 C17         -5.4000    -3.4370     0.1030 c6         1 J3M       0.165600
      5 C20         -2.8370    -2.3880    -0.2000 ca         1 J3M      -0.183300
      6 C21         -1.6120    -1.7480    -0.3380 ca         1 J3M      -0.053000
      7 C24          3.3750    -1.7490    -0.1270 cp         1 J3M      -0.113500
      8 C26          5.4070    -2.8450     0.5870 ca         1 J3M      -0.124000
      9 C28          4.0270    -3.8660    -1.0920 ca         1 J3M      -0.124000
     10 C01         -3.1960     3.3690    -0.7530 c3         1 J3M      -0.102433
     11 C03         -2.0490     1.6780    -2.2210 c3         1 J3M      -0.102433
     12 C04         -1.6590     4.1200    -2.5640 c3         1 J3M      -0.102433
     13 O05         -0.7720     3.0670    -0.6830 os         1 J3M      -0.443000
     14 C06         -0.7520     2.2290     0.4440 c3         1 J3M       0.046600
     15 C07         -0.6700     3.0270     1.7750 c          1 J3M       0.717000
     16 O08         -0.4130     2.3340     2.7810 o          1 J3M      -0.708500
     17 O09         -0.8990     4.2440     1.7360 o          1 J3M      -0.708500
     18 C11          0.1510    -0.1380     0.3420 cp         1 J3M       0.359500
     19 C12         -1.1770    -0.7660     0.5460 cp         1 J3M      -0.147500
     20 C14         -3.2120    -1.0900     1.8040 ca         1 J3M      -0.154000
     21 O16         -4.8400    -2.6250     1.1300 os         1 J3M      -0.351100
     22 C18         -4.3600    -4.3160    -0.5570 c6         1 J3M      -0.112400
     23 C19         -3.2860    -3.4370    -1.1810 c6         1 J3M      -0.016100
     24 N22          1.1450    -1.0410     0.1690 nb         1 J3M      -0.668000
     25 C23          2.3780    -0.6580    -0.0090 cp         1 J3M       0.382500
     26 C25          4.5180    -1.7820     0.6710 ca         1 J3M      -0.088000
     27 C27          5.1670    -3.8870    -0.2980 ca         1 J3M      -0.120000
     28 C29          3.1340    -2.8090    -1.0010 ca         1 J3M      -0.088000
     29 C30          2.7370     0.7200    -0.0760 ca         1 J3M      -0.073000
     30 C31          4.0540     1.1570    -0.3550 ca         1 J3M      -0.117000
     31 C32          4.3540     2.4900    -0.3940 ca         1 J3M      -0.112000
     32 C33          3.3440     3.4410    -0.1540 ca         1 J3M      -0.139000
     33 C34          2.0550     3.0490     0.0810 ca         1 J3M      -0.041000
     34 C35          1.7050     1.6740     0.1120 ca         1 J3M       0.000000
     35 H1          -1.6710     0.2820     2.3580 ha         1 J3M       0.172000
     36 H2          -6.1800    -4.0270     0.5840 h1         1 J3M       0.042700
     37 H3          -5.8780    -2.7950    -0.6460 h1         1 J3M       0.042700
     38 H4          -0.9780    -2.0280    -1.1730 ha         1 J3M       0.110000
     39 H5           6.2850    -2.8600     1.2200 ha         1 J3M       0.102500
     40 H6           3.8310    -4.6770    -1.7820 ha         1 J3M       0.102500
     41 H7          -4.0430     3.4370    -1.4380 hc         1 J3M       0.034478
     42 H8          -3.4480     2.6120    -0.0070 hc         1 J3M       0.034478
     43 H9          -3.0950     4.3240    -0.2370 hc         1 J3M       0.034478
     44 H10         -2.9070     1.6730    -2.8940 hc         1 J3M       0.034478
     45 H11         -1.1570     1.4590    -2.8100 hc         1 J3M       0.034478
     46 H12         -2.1870     0.8600    -1.5110 hc         1 J3M       0.034478
     47 H13         -1.5780     5.1010    -2.0930 hc         1 J3M       0.034478
     48 H14         -0.7340     3.9270    -3.1110 hc         1 J3M       0.034478
     49 H15         -2.4740     4.1610    -3.2880 hc         1 J3M       0.034478
     50 H16         -1.6860     1.6630     0.5140 h1         1 J3M       0.041700
     51 H18         -3.8370    -0.8480     2.6560 ha         1 J3M       0.123000
     52 H19         -3.9190    -4.9910     0.1820 hc         1 J3M       0.047200
     53 H20         -4.8460    -4.9370    -1.3110 hc         1 J3M       0.047200
     54 H21         -3.6830    -2.9560    -2.0800 hc         1 J3M       0.044200
     55 H22         -2.4310    -4.0340    -1.5040 hc         1 J3M       0.044200
     56 H23          4.7070    -0.9860     1.3800 ha         1 J3M       0.122500
     57 H24          5.8620    -4.7130    -0.3650 ha         1 J3M       0.099000
     58 H25          2.2410    -2.7990    -1.6140 ha         1 J3M       0.122500
     59 H26          4.8290     0.4300    -0.5540 ha         1 J3M       0.105000
     60 H27          5.3620     2.8140    -0.6130 ha         1 J3M       0.095000
     61 H28          3.5880     4.4950    -0.1710 ha         1 J3M       0.105000
     62 H29          1.3010     3.8060     0.2350 ha         1 J3M       0.168000
     63 C02         -1.9190     3.0350    -1.5260 c3         1 J3M       0.197000
@<TRIPOS>BOND
     1     1    14 1   
     2     1    18 ar  
     3     1    34 ar  
     4     2    19 ar  
     5     2    20 ar  
     6     2    35 1   
     7     3     5 ar  
     8     3    20 ar  
     9     3    21 1   
    10     4    21 1   
    11     4    22 1   
    12     4    36 1   
    13     4    37 1   
    14     5     6 ar  
    15     5    23 1   
    16     6    19 ar  
    17     6    38 1   
    18     7    25 1   
    19     7    26 ar  
    20     7    28 ar  
    21     8    26 ar  
    22     8    27 ar  
    23     8    39 1   
    24     9    27 ar  
    25     9    28 ar  
    26     9    40 1   
    27    10    41 1   
    28    10    42 1   
    29    10    43 1   
    30    10    63 1   
    31    11    44 1   
    32    11    45 1   
    33    11    46 1   
    34    11    63 1   
    35    12    47 1   
    36    12    48 1   
    37    12    49 1   
    38    12    63 1   
    39    13    14 1   
    40    13    63 1   
    41    14    15 1   
    42    14    50 1   
    43    15    16 1   
    44    15    17 1   
    45    18    19 1   
    46    18    24 ar  
    47    20    51 1   
    48    22    23 1   
    49    22    52 1   
    50    22    53 1   
    51    23    54 1   
    52    23    55 1   
    53    24    25 ar  
    54    25    29 ar  
    55    26    56 1   
    56    27    57 1   
    57    28    58 1   
    58    29    30 ar  
    59    29    34 ar  
    60    30    31 ar  
    61    30    59 1   
    62    31    32 ar  
    63    31    60 1   
    64    32    33 ar  
    65    32    61 1   
    66    33    34 ar  
    67    33    62 1   
@<TRIPOS>SUBSTRUCTURE
     1 J3M         1 TEMP              0 ****  ****    0 ROOT
