@<TRIPOS>MOLECULE
J3N
   51    55     1     0     0
SMALL
abcg2


@<TRIPOS>ATOM
      1 C11          5.1220     0.7630    -0.7860 c          1 J3N       0.602100
      2 C13          7.6060     0.5880    -1.2370 c3         1 J3N      -0.077100
      3 C16         -4.7230     1.9730    -0.2380 ca         1 J3N       0.370500
      4 C17         -2.5580     1.6960    -0.7200 ca         1 J3N       0.386900
      5 C18         -6.1620     0.6600     0.9510 cc         1 J3N      -0.231200
      6 C19         -6.8080     1.7760     0.5030 cd         1 J3N      -0.152100
      7 N           -0.9500    -3.9710    -0.5720 nb         1 J3N      -0.312000
      8 C            0.3510    -3.9450    -0.2890 ca         1 J3N       0.198900
      9 O            4.9480     0.0890    -1.7920 o          1 J3N      -0.594100
     10 C1           0.3940    -1.7770     0.0860 ca         1 J3N       0.164500
     11 C10          2.7240     0.8460    -0.3750 c6         1 J3N       0.080000
     12 C12          6.5200     1.1220    -0.3200 c3         1 J3N      -0.153400
     13 C14         -3.6590    -0.0020     0.5910 ca         1 J3N      -0.023000
     14 C15         -4.8170     0.7600     0.4860 ca         1 J3N      -0.144800
     15 C2          -0.9790    -1.6470    -0.1390 ca         1 J3N      -0.383900
     16 C3          -1.6450    -2.8320    -0.5280 ca         1 J3N       0.456900
     17 C4          -1.2430    -0.2620     0.0530 cc         1 J3N       0.446500
     18 C5          -2.5090     0.4690    -0.0310 ca         1 J3N      -0.189900
     19 C6           2.2170    -0.1520     0.6710 c6         1 J3N       0.083300
     20 C7           2.3320     0.4280     2.0800 c6         1 J3N      -0.089400
     21 C8           3.7480     0.9290     2.3420 c6         1 J3N      -0.100400
     22 C9           4.1970     1.8820     1.2420 c6         1 J3N       0.097000
     23 N1           1.1010    -2.9090     0.0280 nb         1 J3N      -0.229000
     24 N2           0.8580    -0.5450     0.3670 na         1 J3N      -0.017100
     25 N3          -0.1280     0.3640     0.3490 nd         1 J3N      -0.527100
     26 N5           4.0810     1.2360    -0.0550 n          1 J3N      -0.411800
     27 N6          -3.6380     2.4480    -0.8290 nb         1 J3N      -0.681000
     28 N7          -5.9460     2.5630    -0.2100 na         1 J3N      -0.323400
     29 H1           8.5830     0.8940    -0.8650 hc         1 J3N       0.042367
     30 H2           7.5950    -0.5000    -1.2830 hc         1 J3N       0.042367
     31 H3           7.5040     0.9680    -2.2520 hc         1 J3N       0.042367
     32 H5          -6.5960    -0.1340     1.5370 ha         1 J3N       0.210000
     33 H7          -7.8340     2.0760     0.6380 h4         1 J3N       0.217000
     34 H8           0.8550    -4.9050    -0.3390 h5         1 J3N       0.047100
     35 H9           2.6840     0.4130    -1.3700 h1         1 J3N       0.077700
     36 H10          2.0890     1.7370    -0.3670 h1         1 J3N       0.077700
     37 H11          6.6040     2.2090    -0.2370 hc         1 J3N       0.054700
     38 H12          6.6740     0.7390     0.6930 hc         1 J3N       0.054700
     39 H13         -3.6480    -0.9210     1.1650 ha         1 J3N       0.129000
     40 H14          2.8140    -1.0640     0.6020 h1         1 J3N       0.095700
     41 H15          1.6260     1.2570     2.1810 hc         1 J3N       0.060200
     42 H16          2.0500    -0.3290     2.8150 hc         1 J3N       0.060200
     43 H17          3.7900     1.4370     3.3070 hc         1 J3N       0.051700
     44 H18          4.4440     0.0860     2.3910 hc         1 J3N       0.051700
     45 H19          3.5600     2.7720     1.2380 h1         1 J3N       0.053200
     46 H20          5.2120     2.2280     1.4150 h1         1 J3N       0.053200
     47 H21         -3.3250    -3.7390    -1.2000 hn         1 J3N       0.501500
     48 H22         -3.4720    -2.0390    -1.0040 hn         1 J3N       0.501500
     49 H6          -6.1800     3.4430    -0.6420 hn         1 J3N       0.363000
     50 N4          -2.9390    -2.8770    -0.8500 nv         1 J3N      -1.065900
     51 H4          -1.6610     2.0630    -1.2060 h4         1 J3N       0.032100
@<TRIPOS>BOND
     1     1     9 2   
     2     1    12 1   
     3     1    26 1   
     4     2    12 1   
     5     2    29 1   
     6     2    30 1   
     7     2    31 1   
     8     3    14 ar  
     9     3    27 ar  
    10     3    28 1   
    11     4    18 ar  
    12     4    27 ar  
    13     4    51 1   
    14     5     6 2   
    15     5    14 1   
    16     5    32 1   
    17     6    28 1   
    18     6    33 1   
    19     7     8 ar  
    20     7    16 ar  
    21     8    23 ar  
    22     8    34 1   
    23    10    15 ar  
    24    10    23 ar  
    25    10    24 1   
    26    11    19 1   
    27    11    26 1   
    28    11    35 1   
    29    11    36 1   
    30    12    37 1   
    31    12    38 1   
    32    13    14 ar  
    33    13    18 ar  
    34    13    39 1   
    35    15    16 ar  
    36    15    17 1   
    37    16    50 1   
    38    17    18 1   
    39    17    25 2   
    40    19    20 1   
    41    19    24 1   
    42    19    40 1   
    43    20    21 1   
    44    20    41 1   
    45    20    42 1   
    46    21    22 1   
    47    21    43 1   
    48    21    44 1   
    49    22    26 1   
    50    22    45 1   
    51    22    46 1   
    52    24    25 1   
    53    28    49 1   
    54    47    50 1   
    55    48    50 1   
@<TRIPOS>SUBSTRUCTURE
     1 J3N         1 TEMP              0 ****  ****    0 ROOT
