@<TRIPOS>MOLECULE
J3N
   51    55     1     0     0
SMALL
No Charge or Current Charge


@<TRIPOS>ATOM
      1 C11          5.2950     0.7570    -0.8100 c          1 J3N       0.602100
      2 C13          7.8400     0.7080    -1.4260 c3         1 J3N      -0.077100
      3 C16         -4.9350     1.8930    -0.3900 ca         1 J3N       0.370500
      4 C17         -2.6930     1.6810    -0.8880 ca         1 J3N       0.386900
      5 C18         -6.1910     0.5420     0.9470 cc         1 J3N      -0.231200
      6 C19         -7.0000     1.5620     0.4750 cd         1 J3N      -0.152100
      7 N           -1.2050    -3.9030    -0.4050 nb         1 J3N      -0.312000
      8 C            0.1100    -3.9650    -0.0820 ca         1 J3N       0.198900
      9 O            5.0650     0.1150    -1.8270 o          1 J3N      -0.594100
     10 C1           0.3220    -1.7120     0.2130 ca         1 J3N       0.164500
     11 C10          2.8050     0.9030    -0.3140 c6         1 J3N       0.080000
     12 C12          6.7430     1.1160    -0.4160 c3         1 J3N      -0.153400
     13 C14         -3.7140     0.0250     0.5590 ca         1 J3N      -0.023000
     14 C15         -4.8910     0.7610     0.3910 ca         1 J3N      -0.144800
     15 C2          -1.0100    -1.5640    -0.0580 ca         1 J3N      -0.383900
     16 C3          -1.7610    -2.6840    -0.4010 ca         1 J3N       0.456900
     17 C4          -1.2790    -0.1460     0.0040 cc         1 J3N       0.446500
     18 C5          -2.5800     0.4900    -0.1380 ca         1 J3N      -0.189900
     19 C6           2.2200    -0.1240     0.6910 c6         1 J3N       0.083300
     20 C7           2.3860     0.3880     2.1480 c6         1 J3N      -0.089400
     21 C8           3.8630     0.7640     2.4370 c6         1 J3N      -0.100400
     22 C9           4.4000     1.7600     1.3800 c6         1 J3N       0.097000
     23 N1           0.9170    -2.9210     0.2160 nb         1 J3N      -0.229000
     24 N2           0.7980    -0.4260     0.3900 na         1 J3N      -0.017100
     25 N3          -0.1710     0.5620     0.2450 nd         1 J3N      -0.527100
     26 N5           4.2290     1.2080     0.0070 n          1 J3N      -0.411800
     27 N6          -3.8550     2.3740    -1.0310 nb         1 J3N      -0.681000
     28 N7          -6.2190     2.4030    -0.3590 na         1 J3N      -0.323400
     29 H1           8.8290     1.0080    -1.0580 hc         1 J3N       0.042367
     30 H2           7.8470    -0.3780    -1.5760 hc         1 J3N       0.042367
     31 H3           7.6750     1.1920    -2.3960 hc         1 J3N       0.042367
     32 H5          -6.5020    -0.2630     1.6120 ha         1 J3N       0.210000
     33 H7          -8.0560     1.7510     0.6660 h4         1 J3N       0.217000
     34 H8           0.5680    -4.9530    -0.0820 h5         1 J3N       0.047100
     35 H9           2.7040     0.5120    -1.3360 h1         1 J3N       0.077700
     36 H10          2.2240     1.8350    -0.2700 h1         1 J3N       0.077700
     37 H11          6.7820     2.1890    -0.1980 hc         1 J3N       0.054700
     38 H12          6.9400     0.6840     0.5720 hc         1 J3N       0.054700
     39 H13         -3.6790    -0.8500     1.2050 ha         1 J3N       0.129000
     40 H14          2.7990    -1.0510     0.5880 h1         1 J3N       0.095700
     41 H15          1.7470     1.2680     2.3110 hc         1 J3N       0.060200
     42 H16          2.0490    -0.3800     2.8570 hc         1 J3N       0.060200
     43 H17          3.9500     1.2020     3.4410 hc         1 J3N       0.051700
     44 H18          4.4840    -0.1420     2.4350 hc         1 J3N       0.051700
     45 H19          3.8380     2.7030     1.4540 h1         1 J3N       0.053200
     46 H20          5.4460     1.9990     1.6050 h1         1 J3N       0.053200
     47 H21         -3.4330    -3.4680    -1.2430 hn         1 J3N       0.501500
     48 H22         -3.4370    -1.7480    -1.0920 hn         1 J3N       0.501500
     49 H6          -6.5260     3.2340    -0.8500 hn         1 J3N       0.363000
     50 N4          -3.0490    -2.6390    -0.7990 nv         1 J3N      -1.065900
     51 H4          -1.8280     2.0930    -1.4090 h4         1 J3N       0.032100
@<TRIPOS>BOND
     1     1     9 2   
     2     1    12 1   
     3     1    26 1   
     4     2    12 1   
     5     2    29 1   
     6     2    30 1   
     7     2    31 1   
     8     3    14 ar  
     9     3    27 ar  
    10     3    28 1   
    11     4    18 ar  
    12     4    27 ar  
    13     4    51 1   
    14     5     6 2   
    15     5    14 1   
    16     5    32 1   
    17     6    28 1   
    18     6    33 1   
    19     7     8 ar  
    20     7    16 ar  
    21     8    23 ar  
    22     8    34 1   
    23    10    15 ar  
    24    10    23 ar  
    25    10    24 1   
    26    11    19 1   
    27    11    26 1   
    28    11    35 1   
    29    11    36 1   
    30    12    37 1   
    31    12    38 1   
    32    13    14 ar  
    33    13    18 ar  
    34    13    39 1   
    35    15    16 ar  
    36    15    17 1   
    37    16    50 1   
    38    17    18 1   
    39    17    25 2   
    40    19    20 1   
    41    19    24 1   
    42    19    40 1   
    43    20    21 1   
    44    20    41 1   
    45    20    42 1   
    46    21    22 1   
    47    21    43 1   
    48    21    44 1   
    49    22    26 1   
    50    22    45 1   
    51    22    46 1   
    52    24    25 1   
    53    28    49 1   
    54    47    50 1   
    55    48    50 1   
@<TRIPOS>SUBSTRUCTURE
     1 J3N         1 TEMP              0 ****  ****    0 ROOT
