@<TRIPOS>MOLECULE
J3O
   46    47     1     0     0
SMALL
abcg2


@<TRIPOS>ATOM
      1 C2         139.9960   135.2130   172.3720 c3         1 J3O       0.177300
      2 C11        137.2250   133.9660   166.1910 ca         1 J3O      -0.178600
      3 C14        134.4220   131.5610   165.3820 ca         1 J3O      -0.058500
      4 C17        133.2540   132.6970   167.6330 ca         1 J3O      -0.117000
      5 C18        134.4230   133.2290   167.1120 ca         1 J3O      -0.058500
      6 C20        138.5210   134.1510   168.2210 ca         1 J3O      -0.140500
      7 C4         140.3840   136.7340   170.5690 c          1 J3O       0.592100
      8 C5         140.0160   137.0320   169.1100 c3         1 J3O       0.151000
      9 C8         139.2160   135.2280   167.6840 ca         1 J3O       0.146100
     10 C9         138.9260   135.6670   166.3930 ca         1 J3O      -0.140500
     11 C10        137.9480   135.0300   165.6510 ca         1 J3O      -0.058000
     12 C1         141.3050   134.4630   172.5230 c3         1 J3O      -0.105100
     13 C13        135.0190   132.6690   165.9840 ca         1 J3O      -0.167600
     14 C15        133.2690   131.0060   165.9060 ca         1 J3O      -0.117000
     15 C16        132.6890   131.5870   167.0260 ca         1 J3O       0.139000
     16 C19        137.5280   133.5310   167.4810 ca         1 J3O      -0.058000
     17 C3         138.7940   134.3590   172.7160 c3         1 J3O      -0.105100
     18 C6         140.9580   138.0700   168.5220 c3         1 J3O      -0.106600
     19 C7         138.5760   137.5390   169.0860 c3         1 J3O      -0.106600
     20 O1         139.8180   135.6220   170.9950 os         1 J3O      -0.442100
     21 O2         141.0690   137.4590   171.2450 o          1 J3O      -0.486000
     22 O3         140.2190   135.8040   168.3920 os         1 J3O      -0.371100
     23 O4         136.3580   133.2210   164.1390 o          1 J3O      -0.514100
     24 CL1        131.2360   130.9110   167.6740 cl         1 J3O      -0.194000
     25 H1         140.0030   136.1040   173.0040 h1         1 J3O       0.061700
     26 H3         132.7890   133.1480   168.4990 ha         1 J3O       0.133000
     27 H4         134.8490   134.1040   167.5840 ha         1 J3O       0.130000
     28 H5         138.7600   133.7960   169.2150 ha         1 J3O       0.131500
     29 H6         139.4760   136.4970   165.9690 ha         1 J3O       0.131500
     30 H7         137.7360   135.3750   164.6480 ha         1 J3O       0.126500
     31 H8         141.4220   134.1400   173.5570 hc         1 J3O       0.047700
     32 H9         141.3200   133.5750   171.8890 hc         1 J3O       0.047700
     33 H10        142.1640   135.0840   172.2720 hc         1 J3O       0.047700
     34 H11        132.8220   130.1370   165.4430 ha         1 J3O       0.133000
     35 H12        137.0030   132.6880   167.9120 ha         1 J3O       0.126500
     36 H13        138.8610   134.0400   173.7550 hc         1 J3O       0.047700
     37 H14        137.8630   134.9130   172.5970 hc         1 J3O       0.047700
     38 H15        138.7500   133.4650   172.0910 hc         1 J3O       0.047700
     39 H16        140.8910   139.0140   169.0590 hc         1 J3O       0.055867
     40 H17        141.9940   137.7330   168.5510 hc         1 J3O       0.055867
     41 H18        140.6870   138.2560   167.4830 hc         1 J3O       0.055867
     42 H19        138.5050   138.4260   169.7170 hc         1 J3O       0.055867
     43 H20        138.2820   137.8310   168.0780 hc         1 J3O       0.055867
     44 H21        137.8620   136.8050   169.4580 hc         1 J3O       0.055867
     45 C12        136.2170   133.2790   165.3450 c          1 J3O       0.595300
     46 H2         134.8680   131.1160   164.5030 ha         1 J3O       0.130000
@<TRIPOS>BOND
     1     1    12 1   
     2     1    17 1   
     3     1    20 1   
     4     1    25 1   
     5     2    11 ar  
     6     2    16 ar  
     7     2    45 1   
     8     3    13 ar  
     9     3    14 ar  
    10     3    46 1   
    11     4     5 ar  
    12     4    15 ar  
    13     4    26 1   
    14     5    13 ar  
    15     5    27 1   
    16     6     9 ar  
    17     6    16 ar  
    18     6    28 1   
    19     7     8 1   
    20     7    20 1   
    21     7    21 2   
    22     8    18 1   
    23     8    19 1   
    24     8    22 1   
    25     9    10 ar  
    26     9    22 1   
    27    10    11 ar  
    28    10    29 1   
    29    11    30 1   
    30    12    31 1   
    31    12    32 1   
    32    12    33 1   
    33    13    45 1   
    34    14    15 ar  
    35    14    34 1   
    36    15    24 1   
    37    16    35 1   
    38    17    36 1   
    39    17    37 1   
    40    17    38 1   
    41    18    39 1   
    42    18    40 1   
    43    18    41 1   
    44    19    42 1   
    45    19    43 1   
    46    19    44 1   
    47    23    45 2   
@<TRIPOS>SUBSTRUCTURE
     1 J3O         1 TEMP              0 ****  ****    0 ROOT
