@<TRIPOS>MOLECULE
J3O
   46    47     1     0     0
SMALL
No Charge or Current Charge


@<TRIPOS>ATOM
      1 C2         138.2820   135.2500   171.2920 c3         1 J3O       0.177300
      2 C11        137.1750   134.3730   166.4770 ca         1 J3O      -0.178600
      3 C14        134.7880   131.3750   166.2510 ca         1 J3O      -0.058500
      4 C17        135.0960   131.4110   169.0440 ca         1 J3O      -0.117000
      5 C18        135.5820   132.4800   168.2710 ca         1 J3O      -0.058500
      6 C20        139.3630   134.4360   167.5650 ca         1 J3O      -0.140500
      7 C4         140.1910   136.3140   170.2150 c          1 J3O       0.592100
      8 C5         140.6180   137.2200   168.9980 c3         1 J3O       0.151000
      9 C8         139.4480   135.8150   167.3260 ca         1 J3O       0.146100
     10 C9         138.4260   136.4680   166.6180 ca         1 J3O      -0.140500
     11 C10        137.2930   135.7520   166.1970 ca         1 J3O      -0.058000
     12 C1         138.6080   133.7640   171.0170 c3         1 J3O      -0.105100
     13 C13        135.4450   132.4650   166.8640 ca         1 J3O      -0.167600
     14 C15        134.3030   130.3080   167.0280 ca         1 J3O      -0.117000
     15 C16        134.4610   130.3260   168.4220 ca         1 J3O       0.139000
     16 C19        138.2320   133.7160   167.1470 ca         1 J3O      -0.058000
     17 C3         136.7670   135.5230   171.2950 c3         1 J3O      -0.105100
     18 C6         142.0970   137.6630   169.1280 c3         1 J3O      -0.106600
     19 C7         139.7080   138.4740   168.8790 c3         1 J3O      -0.106600
     20 O1         138.8370   136.0570   170.2380 os         1 J3O      -0.442100
     21 O2         140.9680   135.9220   171.0800 o          1 J3O      -0.486000
     22 O3         140.5670   136.5040   167.7320 os         1 J3O      -0.371100
     23 O4         135.3790   133.9220   164.9810 o          1 J3O      -0.514100
     24 Cl1        133.8520   128.9910   169.3930 cl         1 J3O      -0.194000
     25 H1         138.6890   135.5420   172.2700 h1         1 J3O       0.061700
     26 H3         135.2060   131.4280   170.1260 ha         1 J3O       0.133000
     27 H4         136.0510   133.3230   168.7720 ha         1 J3O       0.130000
     28 H5         140.1730   133.9260   168.0810 ha         1 J3O       0.131500
     29 H6         138.5100   137.5280   166.3950 ha         1 J3O       0.131500
     30 H7         136.5020   136.2720   165.6590 ha         1 J3O       0.126500
     31 H8         138.1590   133.1290   171.7900 hc         1 J3O       0.047700
     32 H9         138.2090   133.4490   170.0470 hc         1 J3O       0.047700
     33 H10        139.6880   133.5830   171.0240 hc         1 J3O       0.047700
     34 H11        133.8050   129.4690   166.5500 ha         1 J3O       0.133000
     35 H12        138.1860   132.6450   167.3370 ha         1 J3O       0.126500
     36 H13        136.2690   134.9210   172.0640 hc         1 J3O       0.047700
     37 H14        136.5700   136.5800   171.5100 hc         1 J3O       0.047700
     38 H15        136.3230   135.2790   170.3230 hc         1 J3O       0.047700
     39 H16        142.2510   138.2440   170.0450 hc         1 J3O       0.055867
     40 H17        142.7630   136.7930   169.1600 hc         1 J3O       0.055867
     41 H18        142.3950   138.2870   168.2760 hc         1 J3O       0.055867
     42 H19        139.8180   139.1110   169.7650 hc         1 J3O       0.055867
     43 H20        139.9780   139.0700   167.9990 hc         1 J3O       0.055867
     44 H21        138.6500   138.2030   168.7980 hc         1 J3O       0.055867
     45 C12        135.9520   133.6120   166.0190 c          1 J3O       0.595300
     46 H2         134.6590   131.3490   165.1700 ha         1 J3O       0.130000
@<TRIPOS>BOND
     1     1    12 1   
     2     1    17 1   
     3     1    20 1   
     4     1    25 1   
     5     2    11 ar  
     6     2    16 ar  
     7     2    45 1   
     8     3    13 ar  
     9     3    14 ar  
    10     3    46 1   
    11     4     5 ar  
    12     4    15 ar  
    13     4    26 1   
    14     5    13 ar  
    15     5    27 1   
    16     6     9 ar  
    17     6    16 ar  
    18     6    28 1   
    19     7     8 1   
    20     7    20 1   
    21     7    21 2   
    22     8    18 1   
    23     8    19 1   
    24     8    22 1   
    25     9    10 ar  
    26     9    22 1   
    27    10    11 ar  
    28    10    29 1   
    29    11    30 1   
    30    12    31 1   
    31    12    32 1   
    32    12    33 1   
    33    13    45 1   
    34    14    15 ar  
    35    14    34 1   
    36    15    24 1   
    37    16    35 1   
    38    17    36 1   
    39    17    37 1   
    40    17    38 1   
    41    18    39 1   
    42    18    40 1   
    43    18    41 1   
    44    19    42 1   
    45    19    43 1   
    46    19    44 1   
    47    23    45 2   
@<TRIPOS>SUBSTRUCTURE
     1 J3O         1 TEMP              0 ****  ****    0 ROOT
