@<TRIPOS>MOLECULE
J3P
   73    78     1     0     0
SMALL
bcc


@<TRIPOS>ATOM
      1 C10         -1.8990     1.4020     0.4360 ca         1 J3P      -0.077600
      2 C13         -2.7200    -1.3810     1.6490 ca         1 J3P      -0.069000
      3 C15         -2.6100    -3.7170     1.0710 ca         1 J3P       0.127100
      4 C17         -2.7150    -5.9830     0.3790 c6         1 J3P       0.142400
      5 C20         -1.5480    -3.4620     0.1990 ca         1 J3P      -0.185300
      6 C21         -1.0970    -2.1540     0.0760 ca         1 J3P      -0.072000
      7 C24          2.3350     1.3330     0.5110 cc         1 J3P      -0.306800
      8 C28          5.5080    -0.2490     1.1760 c3         1 J3P       0.111600
      9 C01         -5.4400     0.5110    -1.8300 c3         1 J3P      -0.102100
     10 C03         -3.0520     0.1280    -2.5120 c3         1 J3P      -0.102100
     11 C04         -4.2660     2.1640    -3.2880 c3         1 J3P      -0.102100
     12 O05         -3.6660     1.9800    -1.0460 os         1 J3P      -0.394600
     13 C06         -3.3870     1.3530     0.1800 c3         1 J3P       0.026400
     14 C07         -4.2170     1.9680     1.3410 c          1 J3P       0.929600
     15 O08         -5.2140     2.6410     1.0420 o          1 J3P      -0.813800
     16 O09         -3.8140     1.6790     2.4860 o          1 J3P      -0.813800
     17 C11         -1.1250     0.2730     0.6140 cp         1 J3P       0.428800
     18 C12         -1.6740    -1.0940     0.7700 cp         1 J3P      -0.150500
     19 C14         -3.1830    -2.6750     1.7970 ca         1 J3P      -0.172000
     20 O16         -3.1140    -4.9530     1.2770 os         1 J3P      -0.327900
     21 C18         -1.2340    -5.9260     0.0750 c6         1 J3P      -0.112400
     22 C19         -0.9030    -4.5860    -0.5660 c6         1 J3P      -0.016100
     23 N22          0.2270     0.3090     0.6200 nb         1 J3P      -0.688000
     24 C23          0.8750     1.4410     0.5510 ca         1 J3P       0.497800
     25 C25          3.3080     2.1030    -0.1600 cc         1 J3P       0.321200
     26 N26          4.5190     1.6140     0.0160 nd         1 J3P      -0.546800
     27 N27          4.3570     0.5450     0.7910 na         1 J3P       0.096400
     28 C29          6.1530    -0.9090    -0.0130 ca         1 J3P      -0.103300
     29 C30          5.5960    -2.0590    -0.5670 ca         1 J3P      -0.099500
     30 C31          6.1760    -2.6570    -1.6770 ca         1 J3P      -0.135000
     31 C32          7.3210    -2.1100    -2.2430 ca         1 J3P      -0.122000
     32 C33          7.8820    -0.9650    -1.6950 ca         1 J3P      -0.135000
     33 C34          7.2980    -0.3670    -0.5860 ca         1 J3P      -0.099500
     34 C35          3.0740     0.3250     1.1030 cd         1 J3P      -0.104300
     35 C36          0.1890     2.6920     0.5290 ca         1 J3P      -0.140300
     36 C37          0.8530     3.9350     0.6360 ca         1 J3P      -0.131000
     37 C38          0.1560     5.1100     0.5870 ca         1 J3P      -0.133000
     38 C39         -1.2410     5.0850     0.4250 ca         1 J3P      -0.155000
     39 C40         -1.9150     3.8960     0.3470 ca         1 J3P      -0.061000
     40 C41         -1.2250     2.6590     0.4210 ca         1 J3P       0.002000
     41 H1          -3.1650    -0.5840     2.2320 ha         1 J3P       0.194000
     42 H2          -2.9900    -6.9210     0.8610 h1         1 J3P       0.042700
     43 H3          -3.2950    -5.9010    -0.5480 h1         1 J3P       0.042700
     44 H4          -0.2630    -1.9590    -0.5890 ha         1 J3P       0.133000
     45 H5           6.2170     0.3980     1.6920 h1         1 J3P       0.061200
     46 H6           5.1590    -0.9930     1.8910 h1         1 J3P       0.061200
     47 H7          -5.8420     0.0280    -2.7210 hc         1 J3P       0.034256
     48 H8          -5.3500    -0.2590    -1.0620 hc         1 J3P       0.034256
     49 H9          -6.1620     1.2510    -1.4830 hc         1 J3P       0.034256
     50 H10         -3.3420    -0.3830    -3.4320 hc         1 J3P       0.034256
     51 H11         -2.0760     0.5880    -2.6770 hc         1 J3P       0.034256
     52 H12         -2.9350    -0.6370    -1.7420 hc         1 J3P       0.034256
     53 H13         -5.0020     2.9320    -3.0430 hc         1 J3P       0.034256
     54 H14         -3.3210     2.6580    -3.5200 hc         1 J3P       0.034256
     55 H15         -4.6060     1.6500    -4.1870 hc         1 J3P       0.034256
     56 H16         -3.6870     0.3000     0.1510 h1         1 J3P       0.041700
     57 H18         -3.9910    -2.8870     2.4870 ha         1 J3P       0.141000
     58 H19         -0.6630    -6.0630     0.9970 hc         1 J3P       0.046200
     59 H20         -0.9740    -6.7500    -0.5910 hc         1 J3P       0.046200
     60 H21         -1.2540    -4.5780    -1.6020 hc         1 J3P       0.043700
     61 H22          0.1770    -4.4340    -0.6080 hc         1 J3P       0.043700
     62 H23          3.1660     2.9730    -0.7840 h4         1 J3P       0.038100
     63 H24          4.7070    -2.4940    -0.1260 ha         1 J3P       0.134500
     64 H25          5.7370    -3.5530    -2.0960 ha         1 J3P       0.128000
     65 H26          7.7760    -2.5790    -3.1060 ha         1 J3P       0.125000
     66 H27          8.7750    -0.5350    -2.1310 ha         1 J3P       0.128000
     67 H28          7.7390     0.5270    -0.1620 ha         1 J3P       0.134500
     68 H29          2.7660    -0.5050     1.7180 h4         1 J3P       0.182000
     69 H30          1.9230     3.9620     0.7840 ha         1 J3P       0.122000
     70 H31          0.6740     6.0550     0.6800 ha         1 J3P       0.113000
     71 H32         -1.7920     6.0150     0.3770 ha         1 J3P       0.122000
     72 H33         -2.9890     3.9170     0.2370 ha         1 J3P       0.184000
     73 C02         -4.0980     1.1770    -2.1380 c3         1 J3P       0.170800
@<TRIPOS>BOND
     1     1    13 1   
     2     1    17 ar  
     3     1    40 ar  
     4     2    18 ar  
     5     2    19 ar  
     6     2    41 1   
     7     3     5 ar  
     8     3    19 ar  
     9     3    20 1   
    10     4    20 1   
    11     4    21 1   
    12     4    42 1   
    13     4    43 1   
    14     5     6 ar  
    15     5    22 1   
    16     6    18 ar  
    17     6    44 1   
    18     7    24 1   
    19     7    25 1   
    20     7    34 2   
    21     8    27 1   
    22     8    28 1   
    23     8    45 1   
    24     8    46 1   
    25     9    47 1   
    26     9    48 1   
    27     9    49 1   
    28     9    73 1   
    29    10    50 1   
    30    10    51 1   
    31    10    52 1   
    32    10    73 1   
    33    11    53 1   
    34    11    54 1   
    35    11    55 1   
    36    11    73 1   
    37    12    13 1   
    38    12    73 1   
    39    13    14 1   
    40    13    56 1   
    41    14    15 1   
    42    14    16 1   
    43    17    18 1   
    44    17    23 ar  
    45    19    57 1   
    46    21    22 1   
    47    21    58 1   
    48    21    59 1   
    49    22    60 1   
    50    22    61 1   
    51    23    24 ar  
    52    24    35 ar  
    53    25    26 2   
    54    25    62 1   
    55    26    27 1   
    56    27    34 1   
    57    28    29 ar  
    58    28    33 ar  
    59    29    30 ar  
    60    29    63 1   
    61    30    31 ar  
    62    30    64 1   
    63    31    32 ar  
    64    31    65 1   
    65    32    33 ar  
    66    32    66 1   
    67    33    67 1   
    68    34    68 1   
    69    35    36 ar  
    70    35    40 ar  
    71    36    37 ar  
    72    36    69 1   
    73    37    38 ar  
    74    37    70 1   
    75    38    39 ar  
    76    38    71 1   
    77    39    40 ar  
    78    39    72 1   
@<TRIPOS>SUBSTRUCTURE
     1 J3P         1 TEMP              0 ****  ****    0 ROOT
