@<TRIPOS>MOLECULE
J3P
   73    78     1     0     0
SMALL
No Charge or Current Charge


@<TRIPOS>ATOM
      1 C10         -1.9200     1.4600     0.5280 ca         1 J3P      -0.012300
      2 C13         -2.2910    -1.4620     2.0280 ca         1 J3P      -0.051000
      3 C15         -2.4360    -3.7300     1.1550 ca         1 J3P       0.127100
      4 C17         -2.8480    -5.9240     0.1800 c6         1 J3P       0.165600
      5 C20         -1.6410    -3.3570     0.0480 ca         1 J3P      -0.185300
      6 C21         -1.1900    -2.0290    -0.0650 ca         1 J3P      -0.054000
      7 C24          2.3340     1.6470     0.5140 cc         1 J3P      -0.241500
      8 C28          5.5860     0.1420     1.0910 c3         1 J3P       0.140900
      9 C01         -4.4500    -0.4120    -1.9020 c3         1 J3P      -0.102100
     10 C03         -2.3470     0.9500    -2.4870 c3         1 J3P      -0.102100
     11 C04         -4.6450     1.8190    -3.0980 c3         1 J3P      -0.102100
     12 O05         -3.9870     1.7500    -0.8230 os         1 J3P      -0.441000
     13 C06         -3.4460     1.2370     0.4330 c3         1 J3P       0.049600
     14 C07         -4.1700     1.8520     1.6750 c          1 J3P       0.719000
     15 O08         -5.1280     2.6010     1.5200 o          1 J3P      -0.708500
     16 O09         -3.7260     1.5710     2.7740 o          1 J3P      -0.708500
     17 C11         -1.0480     0.3570     0.7630 cp         1 J3P       0.363500
     18 C12         -1.5200    -1.0560     0.9110 cp         1 J3P      -0.150500
     19 C14         -2.7440    -2.7870     2.1460 ca         1 J3P      -0.154000
     20 O16         -2.8970    -5.0220     1.3060 os         1 J3P      -0.351100
     21 C18         -1.4890    -5.8250    -0.5380 c6         1 J3P      -0.112400
     22 C19         -1.2660    -4.3800    -1.0270 c6         1 J3P      -0.016100
     23 N22          0.2900     0.4810     0.7720 nb         1 J3P      -0.688000
     24 C23          0.8650     1.6920     0.6220 ca         1 J3P       0.432500
     25 C25          3.2430     2.4450    -0.1990 cc         1 J3P       0.255900
     26 N26          4.4960     2.0530    -0.0930 nd         1 J3P      -0.546800
     27 N27          4.3920     0.9260     0.7160 na         1 J3P       0.117800
     28 C29          6.0230    -0.8920     0.0500 ca         1 J3P      -0.103300
     29 C30          5.0770    -1.6880    -0.6310 ca         1 J3P      -0.081500
     30 C31          5.4980    -2.6380    -1.5770 ca         1 J3P      -0.117000
     31 C32          6.8660    -2.8050    -1.8490 ca         1 J3P      -0.104000
     32 C33          7.8140    -2.0210    -1.1710 ca         1 J3P      -0.117000
     33 C34          7.3950    -1.0700    -0.2240 ca         1 J3P      -0.081500
     34 C35          3.0730     0.6510     1.0900 cd         1 J3P      -0.137000
     35 C36          0.0820     2.8710     0.4630 ca         1 J3P      -0.075000
     36 C37          0.6650     4.1620     0.4130 ca         1 J3P      -0.113000
     37 C38         -0.1260     5.3040     0.2330 ca         1 J3P      -0.115000
     38 C39         -1.5130     5.1810     0.1150 ca         1 J3P      -0.137000
     39 C40         -2.1150     3.9180     0.2040 ca         1 J3P      -0.043000
     40 C41         -1.3330     2.7510     0.3960 ca         1 J3P       0.002000
     41 H1          -2.5350    -0.7440     2.8090 ha         1 J3P       0.176000
     42 H2          -3.0230    -6.9490     0.5350 h1         1 J3P       0.042700
     43 H3          -3.6550    -5.6600    -0.5190 h1         1 J3P       0.042700
     44 H4          -0.5820    -1.7400    -0.9200 ha         1 J3P       0.115000
     45 H5           6.4070     0.8430     1.2820 h1         1 J3P       0.061200
     46 H6           5.3730    -0.3750     2.0350 h1         1 J3P       0.061200
     47 H7          -4.5610    -0.8940    -2.8810 hc         1 J3P       0.034256
     48 H8          -3.8130    -1.0640    -1.2930 hc         1 J3P       0.034256
     49 H9          -5.4420    -0.3590    -1.4370 hc         1 J3P       0.034256
     50 H10         -2.2590     0.6200    -3.5290 hc         1 J3P       0.034256
     51 H11         -1.8780     1.9380    -2.4070 hc         1 J3P       0.034256
     52 H12         -1.7800     0.2380    -1.8800 hc         1 J3P       0.034256
     53 H13         -5.6970     1.8970    -2.7970 hc         1 J3P       0.034256
     54 H14         -4.2410     2.8340    -3.1970 hc         1 J3P       0.034256
     55 H15         -4.6100     1.3420    -4.0850 hc         1 J3P       0.034256
     56 H16         -3.6690     0.1700     0.5100 h1         1 J3P       0.041700
     57 H18         -3.3390    -3.0830     3.0060 ha         1 J3P       0.123000
     58 H19         -0.6870    -6.1150     0.1550 hc         1 J3P       0.046200
     59 H20         -1.4500    -6.5240    -1.3840 hc         1 J3P       0.046200
     60 H21         -1.8770    -4.1970    -1.9220 hc         1 J3P       0.043700
     61 H22         -0.2190    -4.2490    -1.3330 hc         1 J3P       0.043700
     62 H23          3.0270     3.2960    -0.8310 h4         1 J3P       0.038100
     63 H24          4.0140    -1.5760    -0.4290 ha         1 J3P       0.116500
     64 H25          4.7630    -3.2470    -2.0990 ha         1 J3P       0.110000
     65 H26          7.1910    -3.5410    -2.5810 ha         1 J3P       0.107000
     66 H27          8.8740    -2.1500    -1.3780 ha         1 J3P       0.110000
     67 H28          8.1390    -0.4700     0.2960 ha         1 J3P       0.116500
     68 H29          2.7890    -0.1960     1.7040 h4         1 J3P       0.164000
     69 H30          1.7280     4.3110     0.5530 ha         1 J3P       0.104000
     70 H31          0.3380     6.2870     0.1950 ha         1 J3P       0.095000
     71 H32         -2.1280     6.0670    -0.0260 ha         1 J3P       0.104000
     72 H33         -3.1960     3.8740     0.1300 ha         1 J3P       0.166000
     73 C02         -3.8370     1.0040    -2.0630 c3         1 J3P       0.194000
@<TRIPOS>BOND
     1     1    13 1   
     2     1    17 ar  
     3     1    40 ar  
     4     2    18 ar  
     5     2    19 ar  
     6     2    41 1   
     7     3     5 ar  
     8     3    19 ar  
     9     3    20 1   
    10     4    20 1   
    11     4    21 1   
    12     4    42 1   
    13     4    43 1   
    14     5     6 ar  
    15     5    22 1   
    16     6    18 ar  
    17     6    44 1   
    18     7    24 1   
    19     7    25 1   
    20     7    34 2   
    21     8    27 1   
    22     8    28 1   
    23     8    45 1   
    24     8    46 1   
    25     9    47 1   
    26     9    48 1   
    27     9    49 1   
    28     9    73 1   
    29    10    50 1   
    30    10    51 1   
    31    10    52 1   
    32    10    73 1   
    33    11    53 1   
    34    11    54 1   
    35    11    55 1   
    36    11    73 1   
    37    12    13 1   
    38    12    73 1   
    39    13    14 1   
    40    13    56 1   
    41    14    15 1   
    42    14    16 1   
    43    17    18 1   
    44    17    23 ar  
    45    19    57 1   
    46    21    22 1   
    47    21    58 1   
    48    21    59 1   
    49    22    60 1   
    50    22    61 1   
    51    23    24 ar  
    52    24    35 ar  
    53    25    26 2   
    54    25    62 1   
    55    26    27 1   
    56    27    34 1   
    57    28    29 ar  
    58    28    33 ar  
    59    29    30 ar  
    60    29    63 1   
    61    30    31 ar  
    62    30    64 1   
    63    31    32 ar  
    64    31    65 1   
    65    32    33 ar  
    66    32    66 1   
    67    33    67 1   
    68    34    68 1   
    69    35    36 ar  
    70    35    40 ar  
    71    36    37 ar  
    72    36    69 1   
    73    37    38 ar  
    74    37    70 1   
    75    38    39 ar  
    76    38    71 1   
    77    39    40 ar  
    78    39    72 1   
@<TRIPOS>SUBSTRUCTURE
     1 J3P         1 TEMP              0 ****  ****    0 ROOT
