@<TRIPOS>MOLECULE
J3Q
   52    55     1     0     0
SMALL
No Charge or Current Charge


@<TRIPOS>ATOM
      1 C10          2.8490    -2.8680    -1.9000 c3         1 J3Q       0.172600
      2 C17         -3.2520    -0.7970     0.6800 cc         1 J3Q       0.236500
      3 C20         -5.8780     1.3290    -1.0820 ca         1 J3Q       0.160500
      4 C22         -7.0450     0.9490    -0.3990 ca         1 J3Q       0.085000
      5 C24         -6.9630    -0.0010     0.6330 ca         1 J3Q       0.160500
      6 C26         -5.7240    -0.5640     0.9810 ca         1 J3Q      -0.135500
      7 C02          7.8810     1.1130     0.3020 ca         1 J3Q      -0.055300
      8 C03          7.3190     2.3860     0.0970 ca         1 J3Q      -0.117000
      9 C04          5.9230     2.5500     0.0790 ca         1 J3Q      -0.072500
     10 C05          5.0690     1.4470     0.2630 ca         1 J3Q      -0.125000
     11 C07          2.4910     0.0880     0.4200 c6         1 J3Q       0.246300
     12 C09          2.2960    -2.0660    -0.6770 c6         1 J3Q       0.151300
     13 C12          0.7350    -2.0650    -0.6040 c6         1 J3Q       0.132300
     14 C14          0.3120    -1.2330     0.6480 c6         1 J3Q       0.064300
     15 C16         -2.0580    -0.3700     0.1870 cd         1 J3Q      -0.176000
     16 C18         -4.5390    -0.1830     0.3090 ca         1 J3Q      -0.057500
     17 C19         -4.6360     0.7680    -0.7360 ca         1 J3Q      -0.135500
     18 C29          0.9400     0.1980     0.6120 c6         1 J3Q       0.149300
     19 C31          5.6340     0.1690     0.4680 ca         1 J3Q      -0.072500
     20 C32          7.0310     0.0070     0.4850 ca         1 J3Q      -0.117000
     21 F23         -8.2410     1.4900    -0.7350 f          1 J3Q      -0.143000
     22 F25         -8.0770    -0.3820     1.2980 f          1 J3Q      -0.155500
     23 N15         -1.1630    -1.2150     0.8130 na         1 J3Q       0.136800
     24 N27         -3.0990    -1.8370     1.5500 nc         1 J3Q      -0.347000
     25 N28         -1.8190    -2.1040     1.6320 nd         1 J3Q      -0.192800
     26 O08          2.7930    -0.7050    -0.7490 os         1 J3Q      -0.405000
     27 O11          4.2900    -2.9250    -1.9340 oh         1 J3Q      -0.714000
     28 O13          0.1520    -1.5150    -1.8090 oh         1 J3Q      -0.705000
     29 O30          0.6120     0.9200     1.8220 oh         1 J3Q      -0.706000
     30 S06          3.2930     1.7510     0.2330 ss         1 J3Q      -0.162000
     31 H101         2.4350    -3.8840    -1.8570 h1         1 J3Q       0.036700
     32 H102         2.4710    -2.4010    -2.8200 h1         1 J3Q       0.036700
     33 H261        -5.6910    -1.2970     1.7830 ha         1 J3Q       0.148000
     34 H011         9.7690     0.7180    -0.6890 hc         1 J3Q       0.045367
     35 H012         9.8980     1.8350     0.6810 hc         1 J3Q       0.045367
     36 H013         9.6880     0.1040     0.9710 hc         1 J3Q       0.045367
     37 H041         5.5020     3.5410    -0.0790 ha         1 J3Q       0.132000
     38 H071         2.9310    -0.3770     1.3140 h2         1 J3Q       0.072700
     39 H091         2.6960    -2.5390     0.2320 h1         1 J3Q       0.058700
     40 H121         0.3990    -3.1040    -0.4620 h1         1 J3Q       0.060700
     41 H141         0.7200    -1.7410     1.5320 h1         1 J3Q       0.108700
     42 H161        -1.7820     0.4130    -0.5040 h4         1 J3Q       0.178000
     43 H191        -3.7590     1.0810    -1.2940 ha         1 J3Q       0.148000
     44 H291         0.5380     0.7310    -0.2620 h1         1 J3Q       0.068700
     45 H311         5.0130    -0.7090     0.6120 ha         1 J3Q       0.132000
     46 H321         7.4530    -0.9830     0.6400 ha         1 J3Q       0.115500
     47 H111         4.5400    -3.3590    -2.7830 ho         1 J3Q       0.510000
     48 H131        -0.6910    -1.9980    -1.9790 ho         1 J3Q       0.513000
     49 H301         0.8900     1.8580     1.6920 ho         1 J3Q       0.529000
     50 F21         -5.9410     2.2370    -2.0820 f          1 J3Q      -0.155500
     51 H031         7.9630     3.2500    -0.0490 ha         1 J3Q       0.115500
     52 C01          9.3910     0.9330     0.3180 c3         1 J3Q      -0.050800
@<TRIPOS>BOND
     1     1    12 1   
     2     1    27 1   
     3     1    31 1   
     4     1    32 1   
     5     2    15 2   
     6     2    16 1   
     7     2    24 1   
     8     3     4 ar  
     9     3    17 ar  
    10     3    50 1   
    11     4     5 ar  
    12     4    21 1   
    13     5     6 ar  
    14     5    22 1   
    15     6    16 ar  
    16     6    33 1   
    17     7     8 ar  
    18     7    20 ar  
    19     7    52 1   
    20     8     9 ar  
    21     8    51 1   
    22     9    10 ar  
    23     9    37 1   
    24    10    19 ar  
    25    10    30 1   
    26    11    18 1   
    27    11    26 1   
    28    11    30 1   
    29    11    38 1   
    30    12    13 1   
    31    12    26 1   
    32    12    39 1   
    33    13    14 1   
    34    13    28 1   
    35    13    40 1   
    36    14    18 1   
    37    14    23 1   
    38    14    41 1   
    39    15    23 1   
    40    15    42 1   
    41    16    17 ar  
    42    17    43 1   
    43    18    29 1   
    44    18    44 1   
    45    19    20 ar  
    46    19    45 1   
    47    20    46 1   
    48    23    25 1   
    49    24    25 2   
    50    27    47 1   
    51    28    48 1   
    52    29    49 1   
    53    34    52 1   
    54    35    52 1   
    55    36    52 1   
@<TRIPOS>SUBSTRUCTURE
     1 J3Q         1 TEMP              0 ****  ****    0 ROOT
