@<TRIPOS>MOLECULE
J3Q
   52    55     1     0     0
SMALL
abcg2


@<TRIPOS>ATOM
      1 C10          2.6320    -3.1070    -1.8770 c3         1 J3Q       0.172600
      2 C17         -3.0590    -0.4930     0.7160 cc         1 J3Q       0.236500
      3 C20         -5.9540     1.0430    -1.0690 ca         1 J3Q       0.160500
      4 C22         -7.0030     0.7690    -0.2100 ca         1 J3Q       0.085000
      5 C24         -6.7370     0.0750     0.9570 ca         1 J3Q       0.160500
      6 C26         -5.4620    -0.3420     1.2700 ca         1 J3Q      -0.135500
      7 C02          7.7050     1.1160     0.5740 ca         1 J3Q      -0.055300
      8 C03          6.9720     2.2330     0.9640 ca         1 J3Q      -0.117000
      9 C04          5.6350     2.3720     0.6180 ca         1 J3Q      -0.072500
     10 C05          5.0080     1.3960    -0.1480 ca         1 J3Q      -0.125000
     11 C07          2.5700     0.0770    -0.1170 c6         1 J3Q       0.246300
     12 C09          2.2440    -2.1340    -0.7860 c6         1 J3Q       0.151300
     13 C12          0.7390    -2.0920    -0.5430 c6         1 J3Q       0.132300
     14 C14          0.4640    -1.0370     0.5380 c6         1 J3Q       0.064300
     15 C16         -1.8840    -0.2830     0.0340 cd         1 J3Q      -0.176000
     16 C18         -4.4130    -0.0590     0.3960 ca         1 J3Q      -0.057500
     17 C19         -4.6690     0.6400    -0.7830 ca         1 J3Q      -0.135500
     18 C29          1.0870     0.3170     0.2000 c6         1 J3Q       0.149300
     19 C31          5.7320     0.2770    -0.5590 ca         1 J3Q      -0.072500
     20 C32          7.0580     0.1400    -0.1840 ca         1 J3Q      -0.117000
     21 F23         -8.2410     1.1630    -0.5020 f          1 J3Q      -0.143000
     22 F25         -7.7510    -0.1870     1.7810 f          1 J3Q      -0.155500
     23 N15         -0.9570    -0.8980     0.7840 na         1 J3Q       0.136800
     24 N27         -2.7670    -1.2200     1.8190 nc         1 J3Q      -0.347000
     25 N28         -1.5060    -1.4570     1.8510 nd         1 J3Q      -0.192800
     26 O08          2.7060    -0.8480    -1.1550 os         1 J3Q      -0.405000
     27 O11          4.0370    -3.1910    -1.9160 oh         1 J3Q      -0.714000
     28 O13          0.0670    -1.7740    -1.7360 oh         1 J3Q      -0.705000
     29 O30          0.9090     1.1430     1.3120 oh         1 J3Q      -0.706000
     30 S06          3.3220     1.6410    -0.6320 ss         1 J3Q      -0.162000
     31 H101         2.1720    -4.0760    -1.6420 h1         1 J3Q       0.036700
     32 H102         2.2150    -2.7740    -2.8340 h1         1 J3Q       0.036700
     33 H261        -5.2900    -0.8820     2.1910 ha         1 J3Q       0.148000
     34 H011         9.7930     1.1940     0.0780 hc         1 J3Q       0.045367
     35 H012         9.4380     1.6430     1.7410 hc         1 J3Q       0.045367
     36 H013         9.3850    -0.0500     1.2460 hc         1 J3Q       0.045367
     37 H041         5.0790     3.2380     0.9540 ha         1 J3Q       0.132000
     38 H071         3.0870    -0.2590     0.7940 h2         1 J3Q       0.072700
     39 H091         2.7250    -2.4510     0.1530 h1         1 J3Q       0.058700
     40 H121         0.4260    -3.0670    -0.1520 h1         1 J3Q       0.060700
     41 H141         0.8950    -1.3900     1.4800 h1         1 J3Q       0.108700
     42 H161        -1.6510     0.2480    -0.8720 h4         1 J3Q       0.178000
     43 H191        -3.8810     0.8740    -1.4870 ha         1 J3Q       0.148000
     44 H291         0.6100     0.7300    -0.7000 h1         1 J3Q       0.068700
     45 H311         5.2620    -0.4920    -1.1590 ha         1 J3Q       0.132000
     46 H321         7.6040    -0.7410    -0.5010 ha         1 J3Q       0.115500
     47 H111         4.2790    -3.7440    -2.6640 ho         1 J3Q       0.510000
     48 H131        -0.7020    -2.3430    -1.8250 ho         1 J3Q       0.513000
     49 H301         1.2450     2.0210     1.1030 ho         1 J3Q       0.529000
     50 F21         -6.2140     1.7110    -2.1930 f          1 J3Q      -0.155500
     51 H031         7.4460     3.0040     1.5590 ha         1 J3Q       0.115500
     52 C01          9.1540     0.9690     0.9340 c3         1 J3Q      -0.050800
@<TRIPOS>BOND
     1     1    12 1   
     2     1    27 1   
     3     1    31 1   
     4     1    32 1   
     5     2    15 2   
     6     2    16 1   
     7     2    24 1   
     8     3     4 ar  
     9     3    17 ar  
    10     3    50 1   
    11     4     5 ar  
    12     4    21 1   
    13     5     6 ar  
    14     5    22 1   
    15     6    16 ar  
    16     6    33 1   
    17     7     8 ar  
    18     7    20 ar  
    19     7    52 1   
    20     8     9 ar  
    21     8    51 1   
    22     9    10 ar  
    23     9    37 1   
    24    10    19 ar  
    25    10    30 1   
    26    11    18 1   
    27    11    26 1   
    28    11    30 1   
    29    11    38 1   
    30    12    13 1   
    31    12    26 1   
    32    12    39 1   
    33    13    14 1   
    34    13    28 1   
    35    13    40 1   
    36    14    18 1   
    37    14    23 1   
    38    14    41 1   
    39    15    23 1   
    40    15    42 1   
    41    16    17 ar  
    42    17    43 1   
    43    18    29 1   
    44    18    44 1   
    45    19    20 ar  
    46    19    45 1   
    47    20    46 1   
    48    23    25 1   
    49    24    25 2   
    50    27    47 1   
    51    28    48 1   
    52    29    49 1   
    53    34    52 1   
    54    35    52 1   
    55    36    52 1   
@<TRIPOS>SUBSTRUCTURE
     1 J3Q         1 TEMP              0 ****  ****    0 ROOT
