@<TRIPOS>MOLECULE
J3S
   29    28     1     0     0
SMALL
abcg2


@<TRIPOS>ATOM
      1 C1          21.4040    -8.1260     6.2770 c          1 J3S       0.598100
      2 O1          21.7270    -8.9310     7.1510 o          1 J3S      -0.612100
      3 C2          22.3940    -7.1450     5.6780 c3         1 J3S      -0.154400
      4 C3          23.7490    -7.7800     5.3740 c3         1 J3S      -0.066400
      5 C4          24.7360    -6.7830     4.7730 c3         1 J3S      -0.077400
      6 C5          26.0940    -7.4170     4.4840 c3         1 J3S      -0.062400
      7 C6          27.1520    -6.4520     3.9530 c3         1 J3S       0.114300
      8 C7          28.5340    -7.0910     3.8040 c3         1 J3S      -0.067400
      9 C8          29.1470    -7.6150     5.1010 c3         1 J3S       0.092600
     10 N1          20.1450    -8.0510     5.8040 nt         1 J3S      -0.612000
     11 S1          26.5780    -5.7980     2.3210 sh         1 J3S      -0.480800
     12 S2          29.3210    -6.2610     6.3350 sh         1 J3S      -0.475800
     13 H1          22.5220    -6.3380     6.4090 hc         1 J3S       0.056200
     14 H2          21.9770    -6.6900     4.7770 hc         1 J3S       0.056200
     15 H3          23.6100    -8.6160     4.6810 hc         1 J3S       0.053200
     16 H4          24.1640    -8.2020     6.2920 hc         1 J3S       0.053200
     17 H5          24.8710    -5.9410     5.4600 hc         1 J3S       0.048200
     18 H6          24.3110    -6.3680     3.8550 hc         1 J3S       0.048200
     19 H7          25.9790    -8.2470     3.7790 hc         1 J3S       0.051200
     20 H8          26.4750    -7.8500     5.4120 hc         1 J3S       0.051200
     21 H9          27.2130    -5.5910     4.6210 h1         1 J3S       0.081700
     22 H10         28.4640    -7.9290     3.1050 hc         1 J3S       0.058700
     23 H11         29.2170    -6.3620     3.3610 hc         1 J3S       0.058700
     24 H12         28.5420    -8.4070     5.5360 h1         1 J3S       0.062200
     25 H13         30.1390    -8.0120     4.8930 h1         1 J3S       0.062200
     26 H14         19.4310    -8.6500     6.1890 hn         1 J3S       0.313500
     27 H15         19.8860    -7.3940     5.0880 hn         1 J3S       0.313500
     28 H16         27.6830    -5.0900     2.0340 hs         1 J3S       0.216800
     29 H17         30.0280    -6.9580     7.2400 hs         1 J3S       0.219800
@<TRIPOS>BOND
     1     1     2 2   
     2     1     3 1   
     3     1    10 1   
     4     3     4 1   
     5     3    13 1   
     6     3    14 1   
     7     4     5 1   
     8     4    15 1   
     9     4    16 1   
    10     5     6 1   
    11     5    17 1   
    12     5    18 1   
    13     6     7 1   
    14     6    19 1   
    15     6    20 1   
    16     7     8 1   
    17     7    11 1   
    18     7    21 1   
    19     8     9 1   
    20     8    22 1   
    21     8    23 1   
    22     9    12 1   
    23     9    24 1   
    24     9    25 1   
    25    10    26 1   
    26    10    27 1   
    27    11    28 1   
    28    12    29 1   
@<TRIPOS>SUBSTRUCTURE
     1 J3S         1 TEMP              0 ****  ****    0 ROOT
