@<TRIPOS>MOLECULE
J3S
   29    28     1     0     0
SMALL
No Charge or Current Charge


@<TRIPOS>ATOM
      1 C1          21.3140    -7.9180     6.4150 c          1 J3S       0.598100
      2 O1          21.2990    -8.1940     7.6020 o          1 J3S      -0.612100
      3 C2          22.3160    -6.9430     5.7890 c3         1 J3S      -0.154400
      4 C3          23.6590    -7.6420     5.4680 c3         1 J3S      -0.066400
      5 C4          24.6970    -6.6920     4.8300 c3         1 J3S      -0.077400
      6 C5          26.0400    -7.3930     4.5100 c3         1 J3S      -0.062400
      7 C6          27.1300    -6.4480     3.9350 c3         1 J3S       0.114300
      8 C7          28.4980    -7.1520     3.7340 c3         1 J3S      -0.067400
      9 C8          29.1710    -7.6870     5.0180 c3         1 J3S       0.092600
     10 N1          20.4200    -8.4760     5.5720 nt         1 J3S      -0.612000
     11 S1          26.5880    -5.6460     2.3510 sh         1 J3S      -0.480800
     12 S2          29.5040    -6.3840     6.2950 sh         1 J3S      -0.475800
     13 H1          22.5040    -6.1210     6.4900 hc         1 J3S       0.056200
     14 H2          21.9120    -6.5550     4.8460 hc         1 J3S       0.056200
     15 H3          23.4750    -8.4850     4.7890 hc         1 J3S       0.053200
     16 H4          24.0750    -8.0630     6.3930 hc         1 J3S       0.053200
     17 H5          24.8830    -5.8520     5.5110 hc         1 J3S       0.048200
     18 H6          24.2710    -6.2710     3.9110 hc         1 J3S       0.048200
     19 H7          25.8620    -8.2100     3.8000 hc         1 J3S       0.051200
     20 H8          26.4080    -7.8510     5.4350 hc         1 J3S       0.051200
     21 H9          27.2760    -5.6340     4.6570 h1         1 J3S       0.081700
     22 H10         28.3740    -7.9820     3.0280 hc         1 J3S       0.058700
     23 H11         29.1900    -6.4440     3.2610 hc         1 J3S       0.058700
     24 H12         28.5520    -8.4720     5.4700 h1         1 J3S       0.062200
     25 H13         30.1310    -8.1470     4.7480 h1         1 J3S       0.062200
     26 H14         19.7380    -9.1260     5.9350 hn         1 J3S       0.313500
     27 H15         20.4390    -8.2450     4.5900 hn         1 J3S       0.313500
     28 H16         27.6790    -4.8530     2.2060 hs         1 J3S       0.216800
     29 H17         30.0860    -7.2080     7.2010 hs         1 J3S       0.219800
@<TRIPOS>BOND
     1     1     2 2   
     2     1     3 1   
     3     1    10 1   
     4     3     4 1   
     5     3    13 1   
     6     3    14 1   
     7     4     5 1   
     8     4    15 1   
     9     4    16 1   
    10     5     6 1   
    11     5    17 1   
    12     5    18 1   
    13     6     7 1   
    14     6    19 1   
    15     6    20 1   
    16     7     8 1   
    17     7    11 1   
    18     7    21 1   
    19     8     9 1   
    20     8    22 1   
    21     8    23 1   
    22     9    12 1   
    23     9    24 1   
    24     9    25 1   
    25    10    26 1   
    26    10    27 1   
    27    11    28 1   
    28    12    29 1   
@<TRIPOS>SUBSTRUCTURE
     1 J3S         1 TEMP              0 ****  ****    0 ROOT
