@<TRIPOS>MOLECULE
J3V
   39    40     1     0     0
SMALL
No Charge or Current Charge


@<TRIPOS>ATOM
      1 C13         -3.6430     0.4000    -0.1240 ca         1 J3V      -0.163000
      2 C15         -5.8900    -0.5680    -0.1290 ca         1 J3V      -0.229300
      3 C17         -3.9180    -2.0050    -0.0220 ca         1 J3V      -0.163000
      4 C01          4.7390     0.1120    -0.0390 ca         1 J3V       0.077000
      5 C02          4.3630    -1.2470     0.0810 ca         1 J3V      -0.303200
      6 C03          2.9830    -1.5770     0.0920 ca         1 J3V       0.245100
      7 C04          1.9960    -0.5710    -0.0160 ca         1 J3V      -0.096000
      8 C05          2.3940     0.7790    -0.1340 ca         1 J3V       0.069000
      9 C06          3.7590     1.1120    -0.1430 ca         1 J3V      -0.309500
     10 N08          0.6240    -0.9770     0.0010 ns         1 J3V      -0.166000
     11 C09         -0.5710    -0.2750    -0.0840 c          1 J3V       0.666100
     12 O11         -0.6440     0.9420    -0.2000 o          1 J3V      -0.588100
     13 C12         -3.0670    -0.8860    -0.0600 ca         1 J3V       0.025000
     14 C14         -5.0400     0.5570    -0.1560 ca         1 J3V      -0.028000
     15 C16         -5.3140    -1.8530    -0.0540 ca         1 J3V      -0.028000
     16 S18          4.2510     2.8250    -0.2930 sy         1 J3V       1.139600
     17 O19          3.1640     3.7170     0.1000 o          1 J3V      -0.531000
     18 O20          5.6250     3.0150     0.1650 o          1 J3V      -0.531000
     19 N21          4.3510     3.0270    -1.9070 n8         1 J3V      -1.011100
     20 N22          5.4470    -2.2790     0.1900 no         1 J3V       0.707200
     21 O23          6.6220    -1.8960     0.1770 o          1 J3V      -0.401500
     22 O24          5.1210    -3.4690     0.2890 o          1 J3V      -0.401500
     23 C25         -7.4120    -0.3950    -0.1530 c3         1 J3V       0.362300
     24 F26         -7.9110    -0.2740     1.0970 f          1 J3V      -0.115000
     25 F27         -7.7940     0.7070    -0.8390 f          1 J3V      -0.115000
     26 F28         -8.0410    -1.4450    -0.7300 f          1 J3V      -0.115000
     27 H1          -3.0300     1.2950    -0.1460 ha         1 J3V       0.136500
     28 H2          -3.4960    -3.0070     0.0340 ha         1 J3V       0.136500
     29 H3           5.7910     0.3980    -0.0550 ha         1 J3V       0.175000
     30 H4           1.6600     1.5740    -0.2220 ha         1 J3V       0.166000
     31 H5           3.3650    -3.4400     0.2670 ho         1 J3V       0.532000
     32 H6           0.5090    -1.9780     0.0920 hn         1 J3V       0.165000
     33 H7          -1.4250    -2.1030     0.0660 hn         1 J3V       0.152000
     34 H8          -5.4570     1.5620    -0.1980 ha         1 J3V       0.132000
     35 H9          -5.9450    -2.7400    -0.0160 ha         1 J3V       0.132000
     36 H10          3.7670     3.8520    -2.0250 hn         1 J3V       0.478500
     37 H11          5.2860     3.4200    -1.9850 hn         1 J3V       0.478500
     38 N10         -1.6650    -1.1250    -0.0230 ns         1 J3V      -0.155000
     39 O07          2.5610    -2.8730     0.2060 oh         1 J3V      -0.526100
@<TRIPOS>BOND
     1     1    13 ar  
     2     1    14 ar  
     3     1    27 1   
     4     2    14 ar  
     5     2    15 ar  
     6     2    23 1   
     7     3    13 ar  
     8     3    15 ar  
     9     3    28 1   
    10     4     5 ar  
    11     4     9 ar  
    12     4    29 1   
    13     5     6 ar  
    14     5    20 1   
    15     6     7 ar  
    16     6    39 1   
    17     7     8 ar  
    18     7    10 1   
    19     8     9 ar  
    20     8    30 1   
    21     9    16 1   
    22    10    11 1   
    23    10    32 1   
    24    11    12 2   
    25    11    38 1   
    26    13    38 1   
    27    14    34 1   
    28    15    35 1   
    29    16    17 2   
    30    16    18 2   
    31    16    19 1   
    32    19    36 1   
    33    19    37 1   
    34    20    21 1   
    35    20    22 1   
    36    23    24 1   
    37    23    25 1   
    38    23    26 1   
    39    31    39 1   
    40    33    38 1   
@<TRIPOS>SUBSTRUCTURE
     1 J3V         1 TEMP              0 ****  ****    0 ROOT
