@<TRIPOS>MOLECULE
J3W
  105   108     1     0     0
SMALL
No Charge or Current Charge


@<TRIPOS>ATOM
      1 CAR         -6.4030     1.0010     2.1500 ca         1 J3W      -0.113000
      2 CAT         -5.6350    -0.1650     1.9950 ca         1 J3W      -0.109000
      3 CBS         -4.3280    -0.0990     1.4760 ca         1 J3W      -0.088300
      4 CBF         -3.5290    -1.3890     1.2710 c3         1 J3W      -0.041100
      5 CAU         -3.7820     1.1620     1.1670 ca         1 J3W      -0.109000
      6 CAS         -4.5510     2.3280     1.3170 ca         1 J3W      -0.113000
      7 CBQ         -5.8720     2.2540     1.7960 ca         1 J3W      -0.077300
      8 CBB         -6.7180     3.5150     1.9270 c3         1 J3W      -0.003900
      9 CAM         -8.0640     3.4110     1.2300 c2         1 J3W      -0.201200
     10 CAL         -8.2760     3.1680    -0.0770 c2         1 J3W      -0.237200
     11 CAZ         -7.2220     2.9310    -1.1350 c3         1 J3W       0.131200
     12 NBH         -6.8970     1.5080    -1.1650 ns         1 J3W      -0.507900
     13 C           -7.1110     0.6630    -2.2380 c          1 J3W       0.590100
     14 O           -7.5180     1.0830    -3.3140 o          1 J3W      -0.596100
     15 CA          -6.6950    -0.8280    -2.0310 c3         1 J3W       0.039700
     16 CB          -7.8990    -1.7150    -1.5660 c3         1 J3W      -0.068700
     17 CG1         -8.3900    -1.3900    -0.1350 c3         1 J3W      -0.090600
     18 CG2         -9.0760    -1.6860    -2.5700 c3         1 J3W      -0.090600
     19 N           -5.4900    -0.9230    -1.1610 ns         1 J3W      -0.489900
     20 CBP         -4.7350    -2.0620    -0.9330 c          1 J3W       0.566100
     21 OAJ         -5.0850    -3.1680    -1.3290 o          1 J3W      -0.612100
     22 CCA         -3.3460    -1.8600    -0.2120 c3         1 J3W       0.118000
     23 OAK         -2.6780    -3.1410    -0.1560 oh         1 J3W      -0.663000
     24 CBD         -2.4510    -0.9170    -1.0830 c3         1 J3W      -0.086400
     25 CBA         -0.9910    -0.7110    -0.5950 c3         1 J3W      -0.074400
     26 CBC         -0.1730     0.2120    -1.5260 c3         1 J3W       0.160800
     27 NBY          1.1900     0.5050    -1.0300 n3         1 J3W      -0.460600
     28 NBK          1.9940    -0.6730    -0.8770 ns         1 J3W      -0.384300
     29 CBO          2.6090    -1.0060     0.3290 c          1 J3W       0.607100
     30 OAI          2.3090    -0.4660     1.3910 o          1 J3W      -0.576100
     31 CBX          3.7530    -2.0610     0.2160 c3         1 J3W       0.052700
     32 CBZ          3.2630    -3.5550     0.3110 c3         1 J3W      -0.045000
     33 CAD          2.2610    -3.8740    -0.8330 c3         1 J3W      -0.087767
     34 CAE          4.4720    -4.5230     0.1640 c3         1 J3W      -0.087767
     35 CAF          2.5670    -3.8320     1.6730 c3         1 J3W      -0.087767
     36 NBI          4.7780    -1.7450     1.2390 ns         1 J3W      -0.489900
     37 CBM          6.1230    -1.6700     1.0150 c          1 J3W       0.639100
     38 OAG          6.6750    -1.8940    -0.0500 o          1 J3W      -0.553000
     39 OBL          6.7380    -1.3140     2.1760 os         1 J3W      -0.447100
     40 CAA          8.1690    -1.1750     2.1590 c3         1 J3W       0.169900
     41 CBE          1.9100     1.5590    -1.7880 c3         1 J3W       0.196100
     42 CXQ          3.3440     1.7650    -1.2980 ca         1 J3W      -0.096300
     43 CXV          4.4310     1.3290    -2.0770 ca         1 J3W      -0.085500
     44 CXW          5.7460     1.4440    -1.5930 ca         1 J3W      -0.104000
     45 CXP          3.5920     2.3270    -0.0330 ca         1 J3W      -0.085500
     46 CXR          4.9060     2.4390     0.4520 ca         1 J3W      -0.104000
     47 CXA          6.0040     1.9940    -0.3180 ca         1 J3W      -0.003000
     48 CXY          9.1880     2.5340     1.6300 cc         1 J3W      -0.134000
     49 CXZ          7.7860     2.5680     1.4270 cc         1 J3W      -0.121000
     50 CXT          7.3880     2.0930     0.1990 cd         1 J3W      -0.157000
     51 SAI          8.8010     1.5890    -0.7620 ss         1 J3W       0.198000
     52 CXG          9.8890     2.0380     0.5640 cd         1 J3W      -0.248000
     53 H1          -7.4170     0.9280     2.5370 ha         1 J3W       0.118000
     54 H2          -6.0630    -1.1250     2.2760 ha         1 J3W       0.121000
     55 H3          -2.5470    -1.2860     1.7460 hc         1 J3W       0.069200
     56 H4          -4.0170    -2.2020     1.8230 hc         1 J3W       0.069200
     57 H5          -2.7600     1.2490     0.8070 ha         1 J3W       0.121000
     58 H6          -4.1170     3.2910     1.0560 ha         1 J3W       0.118000
     59 H7          -6.8740     3.7280     2.9920 hc         1 J3W       0.059200
     60 H8          -6.1750     4.3830     1.5340 hc         1 J3W       0.059200
     61 H9          -8.9170     3.5610     1.8960 ha         1 J3W       0.175000
     62 H10         -9.2960     3.1210    -0.4620 ha         1 J3W       0.181000
     63 H11         -7.5910     3.2630    -2.1150 h1         1 J3W       0.060200
     64 H12         -6.3110     3.5000    -0.9080 h1         1 J3W       0.060200
     65 H13         -6.6110     1.0810    -0.2930 hn         1 J3W       0.326500
     66 H14         -6.3920    -1.1850    -3.0250 h1         1 J3W       0.084700
     67 H15         -7.5550    -2.7550    -1.5480 hc         1 J3W       0.077700
     68 H16         -8.7320    -0.3510    -0.0540 hc         1 J3W       0.038533
     69 H17         -9.2260    -2.0430     0.1430 hc         1 J3W       0.038533
     70 H18         -7.5910    -1.5530     0.5930 hc         1 J3W       0.038533
     71 H19         -9.8340    -2.4300    -2.2960 hc         1 J3W       0.038533
     72 H20         -9.5620    -0.7030    -2.5880 hc         1 J3W       0.038533
     73 H21         -8.7280    -1.9190    -3.5840 hc         1 J3W       0.038533
     74 H22         -5.0890    -0.0640    -0.8030 hn         1 J3W       0.328500
     75 H23         -3.2950    -3.7710    -0.6020 ho         1 J3W       0.480000
     76 H24         -2.4100    -1.3310    -2.0980 hc         1 J3W       0.045700
     77 H25         -2.9310     0.0620    -1.1890 hc         1 J3W       0.045700
     78 H26         -0.9840    -0.2770     0.4110 hc         1 J3W       0.065700
     79 H27         -0.4920    -1.6840    -0.5230 hc         1 J3W       0.065700
     80 H28         -0.1170    -0.2480    -2.5220 h1         1 J3W       0.036700
     81 H29         -0.7240     1.1550    -1.6350 h1         1 J3W       0.036700
     82 H30          2.2980    -1.1760    -1.7060 hn         1 J3W       0.306500
     83 H31          4.2070    -1.9120    -0.7720 h1         1 J3W       0.080700
     84 H32          1.3280    -3.3100    -0.7200 hc         1 J3W       0.039700
     85 H33          2.6930    -3.6350    -1.8130 hc         1 J3W       0.039700
     86 H34          1.9950    -4.9380    -0.8350 hc         1 J3W       0.039700
     87 H35          4.1390    -5.5680     0.1530 hc         1 J3W       0.039700
     88 H36          5.0140    -4.3330    -0.7700 hc         1 J3W       0.039700
     89 H37          5.1780    -4.4150     0.9960 hc         1 J3W       0.039700
     90 H38          1.6770    -3.2040     1.8020 hc         1 J3W       0.039700
     91 H39          2.2450    -4.8790     1.7400 hc         1 J3W       0.039700
     92 H40          3.2440    -3.6400     2.5140 hc         1 J3W       0.039700
     93 H41          4.4730    -1.4940     2.1710 hn         1 J3W       0.342500
     94 H42          8.5360    -0.8700     3.1470 h1         1 J3W       0.047700
     95 H43          8.6510    -2.1260     1.8950 h1         1 J3W       0.047700
     96 H44          8.4790    -0.4160     1.4320 h1         1 J3W       0.047700
     97 H45          1.9360     1.2940    -2.8540 h1         1 J3W       0.046200
     98 H46          1.3680     2.5100    -1.7090 h1         1 J3W       0.046200
     99 H47          4.2580     0.8810    -3.0530 ha         1 J3W       0.119500
    100 H48          6.5560     1.0840    -2.2200 ha         1 J3W       0.119500
    101 H49          2.7590     2.6530     0.5860 ha         1 J3W       0.119500
    102 H50          5.0570     2.8660     1.4380 ha         1 J3W       0.119500
    103 H53          7.1170     2.9380     2.1970 ha         1 J3W       0.139000
    104 H56         10.9600     1.9070     0.4620 h4         1 J3W       0.151000
    105 H51          9.6480     2.8750     2.5540 ha         1 J3W       0.135000
@<TRIPOS>BOND
     1     1     2 ar  
     2     1     7 ar  
     3     1    53 1   
     4     2     3 ar  
     5     2    54 1   
     6     3     4 1   
     7     3     5 ar  
     8     4    22 1   
     9     4    55 1   
    10     4    56 1   
    11     5     6 ar  
    12     5    57 1   
    13     6     7 ar  
    14     6    58 1   
    15     7     8 1   
    16     8     9 1   
    17     8    59 1   
    18     8    60 1   
    19     9    10 2   
    20     9    61 1   
    21    10    11 1   
    22    10    62 1   
    23    11    12 1   
    24    11    63 1   
    25    11    64 1   
    26    12    13 1   
    27    12    65 1   
    28    13    14 2   
    29    13    15 1   
    30    15    16 1   
    31    15    19 1   
    32    15    66 1   
    33    16    17 1   
    34    16    18 1   
    35    16    67 1   
    36    17    68 1   
    37    17    69 1   
    38    17    70 1   
    39    18    71 1   
    40    18    72 1   
    41    18    73 1   
    42    19    20 1   
    43    19    74 1   
    44    20    21 2   
    45    20    22 1   
    46    22    23 1   
    47    22    24 1   
    48    23    75 1   
    49    24    25 1   
    50    24    76 1   
    51    24    77 1   
    52    25    26 1   
    53    25    78 1   
    54    25    79 1   
    55    26    27 1   
    56    26    80 1   
    57    26    81 1   
    58    27    28 1   
    59    27    41 1   
    60    28    29 1   
    61    28    82 1   
    62    29    30 2   
    63    29    31 1   
    64    31    32 1   
    65    31    36 1   
    66    31    83 1   
    67    32    33 1   
    68    32    34 1   
    69    32    35 1   
    70    33    84 1   
    71    33    85 1   
    72    33    86 1   
    73    34    87 1   
    74    34    88 1   
    75    34    89 1   
    76    35    90 1   
    77    35    91 1   
    78    35    92 1   
    79    36    37 1   
    80    36    93 1   
    81    37    38 2   
    82    37    39 1   
    83    39    40 1   
    84    40    94 1   
    85    40    95 1   
    86    40    96 1   
    87    41    42 1   
    88    41    97 1   
    89    41    98 1   
    90    42    43 ar  
    91    42    45 ar  
    92    43    44 ar  
    93    43    99 1   
    94    44    47 ar  
    95    44   100 1   
    96    45    46 ar  
    97    45   101 1   
    98    46    47 ar  
    99    46   102 1   
   100    47    50 1   
   101    48    49 1   
   102    48    52 2   
   103    48   105 1   
   104    49    50 2   
   105    49   103 1   
   106    50    51 1   
   107    51    52 1   
   108    52   104 1   
@<TRIPOS>SUBSTRUCTURE
     1 J3W         1 TEMP              0 ****  ****    0 ROOT
