@<TRIPOS>MOLECULE
J3W
  105   108     1     0     0
SMALL
bcc


@<TRIPOS>ATOM
      1 CAR         -5.8780     0.3460     2.2950 ca         1 J3W      -0.131000
      2 CAT         -5.1790    -0.7330     1.7780 ca         1 J3W      -0.127000
      3 CBS         -3.9620    -0.5650     1.1150 ca         1 J3W      -0.088300
      4 CBF         -3.2760    -1.7600     0.5120 c3         1 J3W      -0.041100
      5 CAU         -3.4480     0.7280     1.0390 ca         1 J3W      -0.127000
      6 CAS         -4.1550     1.8130     1.5440 ca         1 J3W      -0.131000
      7 CBQ         -5.3890     1.6450     2.1620 ca         1 J3W      -0.077300
      8 CBB         -6.1930     2.8280     2.6470 c3         1 J3W      -0.003900
      9 CAM         -7.6280     2.8050     2.1760 c2         1 J3W      -0.151200
     10 CAL         -8.0270     2.7950     0.9070 c2         1 J3W      -0.187200
     11 CAZ         -7.1100     2.8210    -0.2810 c3         1 J3W       0.131200
     12 NBH         -6.8590     1.4730    -0.7630 ns         1 J3W      -0.574900
     13 C           -6.8660     1.1040    -2.0540 c          1 J3W       0.657100
     14 O           -7.1420     1.8570    -2.9740 o          1 J3W      -0.596100
     15 CA          -6.5080    -0.3620    -2.3170 c3         1 J3W       0.039700
     16 CB          -7.6920    -1.3160    -2.0250 c3         1 J3W      -0.068700
     17 CG1         -7.9580    -1.5730    -0.5480 c3         1 J3W      -0.090600
     18 CG2         -8.9570    -0.8250    -2.7250 c3         1 J3W      -0.090600
     19 N           -5.2870    -0.6740    -1.5830 ns         1 J3W      -0.556900
     20 CBP         -4.5900    -1.8100    -1.7070 c          1 J3W       0.633100
     21 OAJ         -4.9790    -2.7760    -2.3490 o          1 J3W      -0.612100
     22 CCA         -3.2000    -1.8660    -1.0340 c3         1 J3W       0.094800
     23 OAK         -2.6600    -3.1310    -1.3130 oh         1 J3W      -0.600800
     24 CBD         -2.3040    -0.8000    -1.6910 c3         1 J3W      -0.086400
     25 CBA         -0.8630    -0.8100    -1.1930 c3         1 J3W      -0.074400
     26 CBC          0.0450    -0.0590    -2.1530 c3         1 J3W       0.160800
     27 NBY          1.3350     0.2540    -1.5600 n3         1 J3W      -0.460600
     28 NBK          1.9820    -0.8560    -1.0610 ns         1 J3W      -0.451300
     29 CBO          2.3610    -0.9070     0.2320 c          1 J3W       0.674100
     30 OAI          2.0180    -0.1000     1.0760 o          1 J3W      -0.576100
     31 CBX          3.3060    -2.0600     0.5620 c3         1 J3W       0.052700
     32 CBZ          2.6540    -3.1750     1.4180 c3         1 J3W      -0.045000
     33 CAD          1.3740    -3.6480     0.7260 c3         1 J3W      -0.087767
     34 CAE          3.6390    -4.3430     1.4980 c3         1 J3W      -0.087767
     35 CAF          2.3230    -2.7100     2.8360 c3         1 J3W      -0.087767
     36 NBI          4.4730    -1.4760     1.1790 ns         1 J3W      -0.556900
     37 CBM          5.7210    -1.6340     0.6940 c          1 J3W       0.755100
     38 OAG          6.0340    -2.3600    -0.2270 o          1 J3W      -0.602000
     39 OBL          6.5880    -0.8940     1.3880 os         1 J3W      -0.423900
     40 CAA          7.9550    -0.9820     1.0110 c3         1 J3W       0.146700
     41 CBE          2.2090     0.9920    -2.4650 c3         1 J3W       0.196100
     42 CXQ          3.5040     1.3410    -1.7890 ca         1 J3W      -0.096300
     43 CXV          4.7030     0.7740    -2.2010 ca         1 J3W      -0.103500
     44 CXW          5.8930     1.0640    -1.5510 ca         1 J3W      -0.122000
     45 CXP          3.5220     2.2050    -0.6970 ca         1 J3W      -0.103500
     46 CXR          4.7050     2.5020    -0.0460 ca         1 J3W      -0.122000
     47 CXA          5.9120     1.9320    -0.4610 ca         1 J3W      -0.003000
     48 CXY          8.6870     2.7470     1.9190 cc         1 J3W      -0.152000
     49 CXZ          7.3330     2.4990     1.5750 cc         1 J3W      -0.139000
     50 CXT          7.1540     2.2470     0.2430 cd         1 J3W      -0.012100
     51 SAI          8.6630     2.3280    -0.5930 ss         1 J3W      -0.091800
     52 CXG          9.5220     2.6820     0.8450 cd         1 J3W      -0.121100
     53 H1          -6.8300     0.1720     2.7820 ha         1 J3W       0.136000
     54 H2          -5.5950    -1.7280     1.8770 ha         1 J3W       0.139000
     55 H3          -2.2500    -1.8290     0.8830 hc         1 J3W       0.069200
     56 H4          -3.7840    -2.6620     0.8620 hc         1 J3W       0.069200
     57 H5          -2.4890     0.9120     0.5700 ha         1 J3W       0.139000
     58 H6          -3.7420     2.8090     1.4350 ha         1 J3W       0.136000
     59 H7          -6.1820     2.8490     3.7390 hc         1 J3W       0.059200
     60 H8          -5.7020     3.7500     2.3270 hc         1 J3W       0.059200
     61 H9          -8.3890     2.7750     2.9470 ha         1 J3W       0.125000
     62 H10         -9.0900     2.7410     0.6940 ha         1 J3W       0.131000
     63 H11         -7.5610     3.3920    -1.0910 h1         1 J3W       0.060200
     64 H12         -6.1630     3.3060    -0.0340 h1         1 J3W       0.060200
     65 H13         -6.6560     0.7830    -0.0550 hn         1 J3W       0.326500
     66 H14         -6.3040    -0.4270    -3.3890 h1         1 J3W       0.084700
     67 H15         -7.4150    -2.2680    -2.4780 hc         1 J3W       0.077700
     68 H16         -8.3390    -0.6910    -0.0320 hc         1 J3W       0.038533
     69 H17         -8.7140    -2.3520    -0.4440 hc         1 J3W       0.038533
     70 H18         -7.0680    -1.9170    -0.0210 hc         1 J3W       0.038533
     71 H19         -9.7300    -1.5920    -2.6680 hc         1 J3W       0.038533
     72 H20         -9.3580     0.0750    -2.2550 hc         1 J3W       0.038533
     73 H21         -8.7850    -0.6070    -3.7800 hc         1 J3W       0.038533
     74 H22         -4.8300     0.0890    -1.1090 hn         1 J3W       0.328500
     75 H23         -3.3040    -3.5850    -1.8800 ho         1 J3W       0.441000
     76 H24         -2.3200    -0.9880    -2.7700 hc         1 J3W       0.045700
     77 H25         -2.7140     0.2040    -1.5600 hc         1 J3W       0.045700
     78 H26         -0.7900    -0.3440    -0.2070 hc         1 J3W       0.065700
     79 H27         -0.5100    -1.8370    -1.0850 hc         1 J3W       0.065700
     80 H28          0.1490    -0.6340    -3.0870 h1         1 J3W       0.036700
     81 H29         -0.4090     0.8970    -2.4270 h1         1 J3W       0.036700
     82 H30          2.3460    -1.5410    -1.7150 hn         1 J3W       0.306500
     83 H31          3.6400    -2.5300    -0.3670 h1         1 J3W       0.080700
     84 H32          0.5990    -2.8790     0.7250 hc         1 J3W       0.039700
     85 H33          1.5540    -3.9400    -0.3110 hc         1 J3W       0.039700
     86 H34          0.9660    -4.5160     1.2470 hc         1 J3W       0.039700
     87 H35          3.2010    -5.1680     2.0630 hc         1 J3W       0.039700
     88 H36          3.9000    -4.7190     0.5060 hc         1 J3W       0.039700
     89 H37          4.5640    -4.0570     2.0010 hc         1 J3W       0.039700
     90 H38          1.5750    -1.9190     2.8520 hc         1 J3W       0.039700
     91 H39          1.9300    -3.5500     3.4120 hc         1 J3W       0.039700
     92 H40          3.2110    -2.3490     3.3580 hc         1 J3W       0.039700
     93 H41          4.3240    -0.7690     1.8830 hn         1 J3W       0.342500
     94 H42          8.4810    -0.2580     1.6270 h1         1 J3W       0.047700
     95 H43          8.3580    -1.9780     1.2010 h1         1 J3W       0.047700
     96 H44          8.1050    -0.7300    -0.0370 h1         1 J3W       0.047700
     97 H45          2.4140     0.4230    -3.3860 h1         1 J3W       0.046200
     98 H46          1.6730     1.8950    -2.7650 h1         1 J3W       0.046200
     99 H47          4.7110     0.0830    -3.0360 ha         1 J3W       0.137500
    100 H48          6.8070     0.5900    -1.8890 ha         1 J3W       0.137500
    101 H49          2.5980     2.6520    -0.3530 ha         1 J3W       0.137500
    102 H50          4.6970     3.1980     0.7830 ha         1 J3W       0.137500
    103 H53          6.5260     2.4760     2.2930 ha         1 J3W       0.157000
    104 H56         10.5910     2.8280     0.8200 h4         1 J3W       0.169000
    105 H51          9.0260     2.9550     2.9240 ha         1 J3W       0.153000
@<TRIPOS>BOND
     1     1     2 ar  
     2     1     7 ar  
     3     1    53 1   
     4     2     3 ar  
     5     2    54 1   
     6     3     4 1   
     7     3     5 ar  
     8     4    22 1   
     9     4    55 1   
    10     4    56 1   
    11     5     6 ar  
    12     5    57 1   
    13     6     7 ar  
    14     6    58 1   
    15     7     8 1   
    16     8     9 1   
    17     8    59 1   
    18     8    60 1   
    19     9    10 2   
    20     9    61 1   
    21    10    11 1   
    22    10    62 1   
    23    11    12 1   
    24    11    63 1   
    25    11    64 1   
    26    12    13 1   
    27    12    65 1   
    28    13    14 2   
    29    13    15 1   
    30    15    16 1   
    31    15    19 1   
    32    15    66 1   
    33    16    17 1   
    34    16    18 1   
    35    16    67 1   
    36    17    68 1   
    37    17    69 1   
    38    17    70 1   
    39    18    71 1   
    40    18    72 1   
    41    18    73 1   
    42    19    20 1   
    43    19    74 1   
    44    20    21 2   
    45    20    22 1   
    46    22    23 1   
    47    22    24 1   
    48    23    75 1   
    49    24    25 1   
    50    24    76 1   
    51    24    77 1   
    52    25    26 1   
    53    25    78 1   
    54    25    79 1   
    55    26    27 1   
    56    26    80 1   
    57    26    81 1   
    58    27    28 1   
    59    27    41 1   
    60    28    29 1   
    61    28    82 1   
    62    29    30 2   
    63    29    31 1   
    64    31    32 1   
    65    31    36 1   
    66    31    83 1   
    67    32    33 1   
    68    32    34 1   
    69    32    35 1   
    70    33    84 1   
    71    33    85 1   
    72    33    86 1   
    73    34    87 1   
    74    34    88 1   
    75    34    89 1   
    76    35    90 1   
    77    35    91 1   
    78    35    92 1   
    79    36    37 1   
    80    36    93 1   
    81    37    38 2   
    82    37    39 1   
    83    39    40 1   
    84    40    94 1   
    85    40    95 1   
    86    40    96 1   
    87    41    42 1   
    88    41    97 1   
    89    41    98 1   
    90    42    43 ar  
    91    42    45 ar  
    92    43    44 ar  
    93    43    99 1   
    94    44    47 ar  
    95    44   100 1   
    96    45    46 ar  
    97    45   101 1   
    98    46    47 ar  
    99    46   102 1   
   100    47    50 1   
   101    48    49 1   
   102    48    52 2   
   103    48   105 1   
   104    49    50 2   
   105    49   103 1   
   106    50    51 1   
   107    51    52 1   
   108    52   104 1   
@<TRIPOS>SUBSTRUCTURE
     1 J3W         1 TEMP              0 ****  ****    0 ROOT
