@<TRIPOS>MOLECULE
J3X
   38    40     1     0     0
SMALL
abcg2


@<TRIPOS>ATOM
      1 C1          -9.6120    40.7750    81.6470 cc         1 J3X      -0.144000
      2 C2          -8.7900    41.6270    80.9820 cd         1 J3X       0.094300
      3 C3          -9.6070    42.7310    82.6970 cd         1 J3X       0.179200
      4 C4         -10.1450    41.4890    82.7700 cc         1 J3X      -0.149000
      5 C5          -7.8970    41.4920    79.7980 c3         1 J3X       0.079700
      6 C6          -6.6800    39.3870    79.7780 c          1 J3X       0.564000
      7 N1          -6.6760    40.7180    80.0380 n          1 J3X      -0.414800
      8 S1          -4.1560    40.0900    80.2730 ss         1 J3X      -0.417000
      9 C7          -5.3470    38.7370    80.0940 c5         1 J3X      -0.029400
     10 C8          -5.5030    41.2750    80.7270 c5         1 J3X       0.285400
     11 C9          -5.0790    42.6660    80.2250 c6         1 J3X      -0.095400
     12 O1          -8.7850    42.8470    81.6250 os         1 J3X      -0.239000
     13 C10         -5.5730    43.8190    81.0890 c6         1 J3X       0.104000
     14 C11         -4.7870    42.2970    82.9220 c6         1 J3X       0.104000
     15 C12         -5.7210    41.3020    82.2520 c6         1 J3X      -0.095400
     16 C14         -4.7660    44.5740    84.7360 c3         1 J3X       0.045600
     17 O3          -5.6130    45.8250    82.8990 o          1 J3X      -0.590100
     18 N2          -5.1330    43.6550    82.4830 n          1 J3X      -0.409800
     19 BR1         -9.8050    44.2520    83.7620 br         1 J3X      -0.083200
     20 H1          -9.8100    39.7510    81.3780 ha         1 J3X       0.156000
     21 H2         -10.8330    41.1300    83.5160 ha         1 J3X       0.155000
     22 H3          -8.4290    40.9700    79.0050 h1         1 J3X       0.085700
     23 H4          -7.6300    42.4790    79.4250 h1         1 J3X       0.085700
     24 H5          -5.4460    38.1500    81.0090 h1         1 J3X       0.103200
     25 H6          -5.0550    38.0780    79.2800 h1         1 J3X       0.103200
     26 H7          -3.9880    42.7010    80.2070 hc         1 J3X       0.073450
     27 H8          -5.1650    44.7540    80.7090 h1         1 J3X       0.063450
     28 H9          -6.6590    43.9080    81.0660 h1         1 J3X       0.063450
     29 H10         -4.8990    42.2200    83.9980 h1         1 J3X       0.063450
     30 H11         -3.7450    42.0740    82.6760 h1         1 J3X       0.063450
     31 H12         -6.7480    41.5980    82.4680 hc         1 J3X       0.073450
     32 H13         -5.5770    40.3070    82.6700 hc         1 J3X       0.073450
     33 H14         -3.9190    43.9110    84.8750 h1         1 J3X       0.087200
     34 H15         -4.5500    45.5590    85.1340 h1         1 J3X       0.087200
     35 CL1         -6.1310    43.9050    85.7290 cl         1 J3X      -0.262000
     36 H17         -5.4080    42.8080    79.1960 hc         1 J3X       0.073450
     37 O2          -7.6420    38.7630    79.3450 o          1 J3X      -0.534000
     38 C13         -5.2100    44.7270    83.2900 c          1 J3X       0.593100
@<TRIPOS>BOND
     1     1     2 2   
     2     1     4 1   
     3     1    20 1   
     4     2     5 1   
     5     2    12 1   
     6     3     4 2   
     7     3    12 1   
     8     3    19 1   
     9     4    21 1   
    10     5     7 1   
    11     5    22 1   
    12     5    23 1   
    13     6     7 1   
    14     6     9 1   
    15     6    37 2   
    16     7    10 1   
    17     8     9 1   
    18     8    10 1   
    19     9    24 1   
    20     9    25 1   
    21    10    11 1   
    22    10    15 1   
    23    11    13 1   
    24    11    26 1   
    25    11    36 1   
    26    13    18 1   
    27    13    27 1   
    28    13    28 1   
    29    14    15 1   
    30    14    18 1   
    31    14    29 1   
    32    14    30 1   
    33    15    31 1   
    34    15    32 1   
    35    16    33 1   
    36    16    34 1   
    37    16    35 1   
    38    16    38 1   
    39    17    38 2   
    40    18    38 1   
@<TRIPOS>SUBSTRUCTURE
     1 J3X         1 TEMP              0 ****  ****    0 ROOT
