@<TRIPOS>MOLECULE
J3X
   38    40     1     0     0
SMALL
No Charge or Current Charge


@<TRIPOS>ATOM
      1 C1          -9.4980    40.8740    81.7090 cc         1 J3X      -0.144000
      2 C2          -8.7300    41.7830    81.0320 cd         1 J3X       0.094300
      3 C3          -9.5400    42.8290    82.7530 cd         1 J3X       0.179200
      4 C4         -10.0240    41.5530    82.8250 cc         1 J3X      -0.149000
      5 C5          -7.8720    41.5960    79.8060 c3         1 J3X       0.079700
      6 C6          -6.8200    39.3400    79.8100 c          1 J3X       0.564000
      7 N1          -6.6810    40.7270    80.0360 n          1 J3X      -0.414800
      8 S1          -4.1850    39.9420    80.0270 ss         1 J3X      -0.417000
      9 C7          -5.4950    38.6400    80.1220 c5         1 J3X      -0.029400
     10 C8          -5.3960    41.2040    80.6340 c5         1 J3X       0.285400
     11 C9          -4.9690    42.6180    80.1260 c6         1 J3X      -0.095400
     12 O1          -8.7460    43.0150    81.6480 os         1 J3X      -0.239000
     13 C10         -5.4700    43.8050    80.9870 c6         1 J3X       0.104000
     14 C11         -4.6720    42.3240    82.8640 c6         1 J3X       0.104000
     15 C12         -5.5000    41.2100    82.1910 c6         1 J3X      -0.095400
     16 C14         -5.1060    44.5740    84.8290 c3         1 J3X       0.045600
     17 O3          -5.9550    45.7630    82.9200 o          1 J3X      -0.590100
     18 N2          -5.1570    43.6690    82.4370 n          1 J3X      -0.409800
     19 Br1         -9.8260    44.2520    83.9540 br         1 J3X      -0.083200
     20 H1          -9.6570    39.8290    81.4590 ha         1 J3X       0.156000
     21 H2         -10.6680    41.1340    83.5920 ha         1 J3X       0.155000
     22 H3          -8.4970    41.1660    79.0130 h1         1 J3X       0.085700
     23 H4          -7.5570    42.5780    79.4360 h1         1 J3X       0.085700
     24 H5          -5.5530    38.2170    81.1320 h1         1 J3X       0.103200
     25 H6          -5.3200    37.8400    79.3920 h1         1 J3X       0.103200
     26 H7          -3.8720    42.6630    80.1190 hc         1 J3X       0.073450
     27 H8          -5.0090    44.7290    80.6090 h1         1 J3X       0.063450
     28 H9          -6.5530    43.9250    80.8680 h1         1 J3X       0.063450
     29 H10         -4.7500    42.1950    83.9510 h1         1 J3X       0.063450
     30 H11         -3.6100    42.2160    82.5990 h1         1 J3X       0.063450
     31 H12         -6.5430    41.3360    82.5030 hc         1 J3X       0.073450
     32 H13         -5.1930    40.2350    82.5920 hc         1 J3X       0.073450
     33 H14         -4.1380    44.0720    84.9380 h1         1 J3X       0.087200
     34 H15         -5.0340    45.5740    85.2730 h1         1 J3X       0.087200
     35 Cl1         -6.3670    43.6390    85.7680 cl         1 J3X      -0.262000
     36 H17         -5.2640    42.7520    79.0770 hc         1 J3X       0.073450
     37 O2          -7.8440    38.8070    79.4050 o          1 J3X      -0.534000
     38 C13         -5.4480    44.7260    83.3350 c          1 J3X       0.593100
@<TRIPOS>BOND
     1     1     2 2   
     2     1     4 1   
     3     1    20 1   
     4     2     5 1   
     5     2    12 1   
     6     3     4 2   
     7     3    12 1   
     8     3    19 1   
     9     4    21 1   
    10     5     7 1   
    11     5    22 1   
    12     5    23 1   
    13     6     7 1   
    14     6     9 1   
    15     6    37 2   
    16     7    10 1   
    17     8     9 1   
    18     8    10 1   
    19     9    24 1   
    20     9    25 1   
    21    10    11 1   
    22    10    15 1   
    23    11    13 1   
    24    11    26 1   
    25    11    36 1   
    26    13    18 1   
    27    13    27 1   
    28    13    28 1   
    29    14    15 1   
    30    14    18 1   
    31    14    29 1   
    32    14    30 1   
    33    15    31 1   
    34    15    32 1   
    35    16    33 1   
    36    16    34 1   
    37    16    35 1   
    38    16    38 1   
    39    17    38 2   
    40    18    38 1   
@<TRIPOS>SUBSTRUCTURE
     1 J3X         1 TEMP              0 ****  ****    0 ROOT
