@<TRIPOS>MOLECULE
J3Y
   57    61     1     0     0
SMALL
abcg2


@<TRIPOS>ATOM
      1 C5          -1.4410     0.5910    -0.3820 ca         1 J3Y       0.633900
      2 C6          -0.9290     1.9130    -0.4470 ca         1 J3Y      -0.251000
      3 C7           0.4290     2.1230    -0.5100 ca         1 J3Y       0.019000
      4 C8           1.2760     1.0120    -0.5160 ca         1 J3Y      -0.154800
      5 C10          2.8540    -0.5800    -0.5160 cc         1 J3Y      -0.117100
      6 C13          2.1660    -3.4870     0.3850 cc         1 J3Y      -0.235000
      7 C15          1.9710    -6.0820     0.5580 c3         1 J3Y      -0.033800
      8 C24          6.0370     2.5310    -0.5150 c6         1 J3Y       0.064000
      9 C28          5.2860     0.7080     0.8930 c6         1 J3Y       0.064000
     10 C1          -3.9400     1.5810    -2.0620 c3         1 J3Y      -0.125100
     11 C12          1.4600    -2.5890    -0.4320 cc         1 J3Y       0.346500
     12 C14          1.6480    -4.7210     0.0560 cd         1 J3Y      -0.127300
     13 C19          0.6460    -0.2400    -0.4690 ca         1 J3Y       0.436500
     14 C2          -3.8130     1.2950    -0.5630 c3         1 J3Y       0.195200
     15 C25          6.6230     3.1930     0.7180 c6         1 J3Y       0.132600
     16 C27          5.9180     1.4430     2.0660 c6         1 J3Y       0.132600
     17 C29         -5.1280     0.7740    -0.0300 ca         1 J3Y       0.330300
     18 C30         -6.0750     1.6360     0.5100 ca         1 J3Y      -0.126000
     19 C31         -7.2920     1.1270     0.9310 ca         1 J3Y      -0.111000
     20 C32         -7.4940    -0.2300     0.7890 ca         1 J3Y       0.117000
     21 C34         -6.5080    -1.0330     0.2480 ca         1 J3Y       0.313900
     22 C9           2.6910     0.7770    -0.5260 cd         1 J3Y      -0.183400
     23 F33         -8.6500    -0.7820     1.1780 f          1 J3Y      -0.168000
     24 N11          1.6310    -1.2020    -0.4870 na         1 J3Y      -0.181900
     25 N16          0.7110    -4.4820    -0.8800 na         1 J3Y      -0.000200
     26 N17          0.5840    -3.1980    -1.2000 nd         1 J3Y      -0.482800
     27 N20         -0.6500    -0.4780    -0.3990 nb         1 J3Y      -0.747000
     28 N23          4.9360     1.6530    -0.1540 n          1 J3Y      -0.417800
     29 N35         -5.3510    -0.5280    -0.1550 nb         1 J3Y      -0.655000
     30 N4          -2.7740     0.3390    -0.2600 nu         1 J3Y      -0.919100
     31 O22          3.4360     2.8100    -1.3860 o          1 J3Y      -0.606100
     32 O26          7.0150     2.2340     1.6750 os         1 J3Y      -0.445000
     33 H1          -1.5980     2.7610    -0.4410 ha         1 J3Y       0.119000
     34 H2           0.8200     3.1300    -0.5560 ha         1 J3Y       0.134000
     35 H3           3.7540    -1.1720    -0.5710 h4         1 J3Y       0.221000
     36 H4           2.9310    -3.2730     1.1130 ha         1 J3Y       0.149000
     37 H5           1.0910    -6.5770     0.9700 hc         1 J3Y       0.054367
     38 H6           2.3660    -6.7150    -0.2370 hc         1 J3Y       0.054367
     39 H7           2.7210    -6.0200     1.3420 hc         1 J3Y       0.054367
     40 H9           6.8100     1.9360    -1.0120 h1         1 J3Y       0.061450
     41 H10          5.9740    -0.0480     0.5000 h1         1 J3Y       0.061450
     42 H11          4.4000     0.1960     1.2590 h1         1 J3Y       0.061450
     43 H12         -4.7060     2.3340    -2.2530 hc         1 J3Y       0.049367
     44 H13         -2.9990     1.9500    -2.4700 hc         1 J3Y       0.049367
     45 H14         -4.2130     0.6720    -2.5990 hc         1 J3Y       0.049367
     46 H15         -3.5940     2.2320    -0.0430 h1         1 J3Y       0.063700
     47 H16          7.5110     3.7640     0.4430 h1         1 J3Y       0.053700
     48 H17          5.8900     3.8900     1.1480 h1         1 J3Y       0.053700
     49 H18          5.1520     2.0640     2.5510 h1         1 J3Y       0.053700
     50 H19          6.2770     0.7170     2.7960 h1         1 J3Y       0.053700
     51 H20         -5.8640     2.6930     0.6050 ha         1 J3Y       0.130000
     52 H21         -8.0540     1.7640     1.3600 ha         1 J3Y       0.139000
     53 H22         -6.6600    -2.1010     0.1400 h4         1 J3Y       0.039100
     54 H23          0.1200    -5.1620    -1.3320 hn         1 J3Y       0.376000
     55 H24         -3.0360    -0.6290    -0.3860 hn         1 J3Y       0.510000
     56 C21          3.7130     1.8230    -0.7090 c          1 J3Y       0.652300
     57 H8           5.6960     3.2890    -1.2150 h1         1 J3Y       0.061450
@<TRIPOS>BOND
     1     1     2 ar  
     2     1    27 ar  
     3     1    30 1   
     4     2     3 ar  
     5     2    33 1   
     6     3     4 ar  
     7     3    34 1   
     8     4    13 ar  
     9     4    22 1   
    10     5    22 2   
    11     5    24 1   
    12     5    35 1   
    13     6    11 1   
    14     6    12 2   
    15     6    36 1   
    16     7    12 1   
    17     7    37 1   
    18     7    38 1   
    19     7    39 1   
    20     8    15 1   
    21     8    28 1   
    22     8    40 1   
    23     8    57 1   
    24     9    16 1   
    25     9    28 1   
    26     9    41 1   
    27     9    42 1   
    28    10    14 1   
    29    10    43 1   
    30    10    44 1   
    31    10    45 1   
    32    11    24 1   
    33    11    26 2   
    34    12    25 1   
    35    13    24 1   
    36    13    27 ar  
    37    14    17 1   
    38    14    30 1   
    39    14    46 1   
    40    15    32 1   
    41    15    47 1   
    42    15    48 1   
    43    16    32 1   
    44    16    49 1   
    45    16    50 1   
    46    17    18 ar  
    47    17    29 ar  
    48    18    19 ar  
    49    18    51 1   
    50    19    20 ar  
    51    19    52 1   
    52    20    21 ar  
    53    20    23 1   
    54    21    29 ar  
    55    21    53 1   
    56    22    56 1   
    57    25    26 1   
    58    25    54 1   
    59    28    56 1   
    60    30    55 1   
    61    31    56 2   
@<TRIPOS>SUBSTRUCTURE
     1 J3Y         1 TEMP              0 ****  ****    0 ROOT
