@<TRIPOS>MOLECULE
J3Y
   57    61     1     0     0
SMALL
No Charge or Current Charge


@<TRIPOS>ATOM
      1 C5          -1.5590     0.7730    -0.2500 ca         1 J3Y       0.633900
      2 C6          -1.0060     2.0620    -0.3330 ca         1 J3Y      -0.251000
      3 C7           0.3910     2.1930    -0.3520 ca         1 J3Y       0.019000
      4 C8           1.1250     1.0000    -0.2880 ca         1 J3Y      -0.154800
      5 C10          2.8220    -0.5930    -0.1800 cc         1 J3Y      -0.117100
      6 C13          2.4710    -3.4750     0.0890 cc         1 J3Y      -0.235000
      7 C15          2.5360    -6.0730     0.1950 c3         1 J3Y      -0.033800
      8 C24          6.0990     2.3240    -0.6590 c6         1 J3Y       0.064000
      9 C28          5.3580     0.6050     0.9920 c6         1 J3Y       0.064000
     10 C1          -3.9520     1.6320    -2.1410 c3         1 J3Y      -0.125100
     11 C12          1.4160    -2.5620    -0.0900 cc         1 J3Y       0.346500
     12 C14          1.9060    -4.7130     0.0540 cd         1 J3Y      -0.127300
     13 C19          0.4940    -0.2310    -0.2000 ca         1 J3Y       0.436500
     14 C2          -4.0190     1.3890    -0.6180 c3         1 J3Y       0.195200
     15 C25          6.8720     3.0320     0.4810 c6         1 J3Y       0.132600
     16 C27          6.1900     1.3570     2.0680 c6         1 J3Y       0.132600
     17 C29         -5.3970     0.8140    -0.2050 ca         1 J3Y       0.330300
     18 C30         -6.4250     1.6780     0.2330 ca         1 J3Y      -0.126000
     19 C31         -7.6750     1.1450     0.6020 ca         1 J3Y      -0.111000
     20 C32         -7.8500    -0.2450     0.5190 ca         1 J3Y       0.117000
     21 C34         -6.7780    -1.0450     0.0720 ca         1 J3Y       0.313900
     22 C9           2.5680     0.7730    -0.2620 cd         1 J3Y      -0.183400
     23 F33         -9.0330    -0.8040     0.8630 f          1 J3Y      -0.168000
     24 N11          1.5330    -1.1620    -0.1270 na         1 J3Y      -0.181900
     25 N16          0.5360    -4.4790    -0.1450 na         1 J3Y      -0.000200
     26 N17          0.2320    -3.1180    -0.2350 nd         1 J3Y      -0.482800
     27 N20         -0.8530    -0.3530    -0.1720 nb         1 J3Y      -0.747000
     28 N23          4.9630     1.4990    -0.1440 n          1 J3Y      -0.417800
     29 N35         -5.5710    -0.5360    -0.2860 nb         1 J3Y      -0.655000
     30 N4          -2.8960     0.5180    -0.2040 nu         1 J3Y      -0.919100
     31 O22          3.3390     2.9590    -0.8460 o          1 J3Y      -0.606100
     32 O26          7.2960     2.0590     1.4600 os         1 J3Y      -0.445000
     33 H1          -1.6400     2.9400    -0.3730 ha         1 J3Y       0.119000
     34 H2           0.8640     3.1700    -0.4050 ha         1 J3Y       0.134000
     35 H3           3.7480    -1.1560    -0.2160 h4         1 J3Y       0.221000
     36 H4           3.5190    -3.2450     0.2370 ha         1 J3Y       0.149000
     37 H5           2.1250    -6.6110     1.0580 hc         1 J3Y       0.054367
     38 H6           2.3610    -6.6840    -0.6980 hc         1 J3Y       0.054367
     39 H7           3.6210    -5.9950     0.3370 hc         1 J3Y       0.054367
     40 H9           6.7920     1.6670    -1.2030 h1         1 J3Y       0.061450
     41 H10          5.9430    -0.2400     0.6030 h1         1 J3Y       0.061450
     42 H11          4.4760     0.2000     1.5030 h1         1 J3Y       0.061450
     43 H12         -4.7690     2.2910    -2.4570 hc         1 J3Y       0.049367
     44 H13         -3.0070     2.1080    -2.4270 hc         1 J3Y       0.049367
     45 H14         -4.0440     0.6870    -2.6910 hc         1 J3Y       0.049367
     46 H15         -3.9120     2.3610    -0.1170 h1         1 J3Y       0.063700
     47 H16          7.7560     3.5440     0.0740 h1         1 J3Y       0.053700
     48 H17          6.2310     3.7830     0.9650 h1         1 J3Y       0.053700
     49 H18          5.5510     2.0810     2.5960 h1         1 J3Y       0.053700
     50 H19          6.5790     0.6440     2.8080 h1         1 J3Y       0.053700
     51 H20         -6.2530     2.7500     0.2830 ha         1 J3Y       0.130000
     52 H21         -8.4830     1.7880     0.9420 ha         1 J3Y       0.139000
     53 H22         -6.8900    -2.1270    -0.0020 h4         1 J3Y       0.039100
     54 H23         -0.1910    -5.1900    -0.2210 hn         1 J3Y       0.376000
     55 H24         -3.0930    -0.4780    -0.1490 hn         1 J3Y       0.510000
     56 C21          3.6170     1.8380    -0.4380 c          1 J3Y       0.652300
     57 H8           5.7450     3.0750    -1.3780 h1         1 J3Y       0.061450
@<TRIPOS>BOND
     1     1     2 ar  
     2     1    27 ar  
     3     1    30 1   
     4     2     3 ar  
     5     2    33 1   
     6     3     4 ar  
     7     3    34 1   
     8     4    13 ar  
     9     4    22 1   
    10     5    22 2   
    11     5    24 1   
    12     5    35 1   
    13     6    11 1   
    14     6    12 2   
    15     6    36 1   
    16     7    12 1   
    17     7    37 1   
    18     7    38 1   
    19     7    39 1   
    20     8    15 1   
    21     8    28 1   
    22     8    40 1   
    23     8    57 1   
    24     9    16 1   
    25     9    28 1   
    26     9    41 1   
    27     9    42 1   
    28    10    14 1   
    29    10    43 1   
    30    10    44 1   
    31    10    45 1   
    32    11    24 1   
    33    11    26 2   
    34    12    25 1   
    35    13    24 1   
    36    13    27 ar  
    37    14    17 1   
    38    14    30 1   
    39    14    46 1   
    40    15    32 1   
    41    15    47 1   
    42    15    48 1   
    43    16    32 1   
    44    16    49 1   
    45    16    50 1   
    46    17    18 ar  
    47    17    29 ar  
    48    18    19 ar  
    49    18    51 1   
    50    19    20 ar  
    51    19    52 1   
    52    20    21 ar  
    53    20    23 1   
    54    21    29 ar  
    55    21    53 1   
    56    22    56 1   
    57    25    26 1   
    58    25    54 1   
    59    28    56 1   
    60    30    55 1   
    61    31    56 2   
@<TRIPOS>SUBSTRUCTURE
     1 J3Y         1 TEMP              0 ****  ****    0 ROOT
