@<TRIPOS>MOLECULE
J3Z
   42    45     1     0     0
SMALL
bcc


@<TRIPOS>ATOM
      1 C2           0.2390    -0.4390    -0.5690 c6         1 J3Z      -0.004400
      2 C4          -1.9310    -1.7880    -0.3720 c6         1 J3Z      -0.051400
      3 C5          -2.5940    -0.5630     0.2390 c5         1 J3Z      -0.154000
      4 C6          -2.5820    -0.6430     1.7780 c3         1 J3Z      -0.080100
      5 C7          -4.0410    -0.3100    -0.1220 c          1 J3Z       0.580100
      6 C8          -4.2700     1.1940    -0.1370 c5         1 J3Z      -0.191400
      7 C9          -2.8910     1.8320     0.0860 c5         1 J3Z      -0.066400
      8 C10         -1.9330     0.7080    -0.3100 c5         1 J3Z      -0.060700
      9 C12         -0.4620     0.7810     0.0500 c6         1 J3Z      -0.045700
     10 C3          -0.4170    -1.7580    -0.1300 c6         1 J3Z      -0.071400
     11 C14          0.2210     2.0510    -0.4300 c6         1 J3Z      -0.068400
     12 C15          1.6440     2.1100     0.1010 c6         1 J3Z      -0.033100
     13 C16          2.3890     0.8050    -0.0270 ca         1 J3Z      -0.031300
     14 C21          1.7360    -0.3980    -0.3200 ca         1 J3Z      -0.102300
     15 C17          3.7680     0.8210     0.1760 ca         1 J3Z      -0.226000
     16 C18          4.5250    -0.3390     0.0880 ca         1 J3Z       0.139100
     17 C19          3.8890    -1.5390    -0.2160 ca         1 J3Z      -0.163000
     18 C20          2.5200    -1.5500    -0.4160 ca         1 J3Z      -0.091000
     19 H2           0.0850    -0.3540    -1.6560 hc         1 J3Z       0.053700
     20 H14         -2.3490    -2.7100     0.0380 hc         1 J3Z       0.051200
     21 H24         -2.1220    -1.8060    -1.4500 hc         1 J3Z       0.051200
     22 H16         -3.0390     0.2250     2.2550 hc         1 J3Z       0.041033
     23 H26         -3.1350    -1.5260     2.1040 hc         1 J3Z       0.041033
     24 H36         -1.5700    -0.7280     2.1700 hc         1 J3Z       0.041033
     25 HO3          6.1800     0.5280     0.4930 ho         1 J3Z       0.424000
     26 H18         -4.6830     1.4660    -1.1120 hc         1 J3Z       0.072200
     27 H28         -5.0200     1.4750     0.6060 hc         1 J3Z       0.072200
     28 H19         -2.7550     2.7260    -0.5230 hc         1 J3Z       0.049200
     29 H29         -2.7490     2.1300     1.1270 hc         1 J3Z       0.049200
     30 H10         -1.9870     0.6310    -1.4080 hc         1 J3Z       0.048700
     31 H12         -0.3600     0.7360     1.1430 hc         1 J3Z       0.057700
     32 H13          0.0240    -2.5950    -0.6730 hc         1 J3Z       0.043700
     33 H23         -0.1950    -1.9370     0.9260 hc         1 J3Z       0.043700
     34 H114         0.2170     2.0740    -1.5260 hc         1 J3Z       0.043700
     35 H214        -0.3240     2.9370    -0.0960 hc         1 J3Z       0.043700
     36 H115         2.2070     2.9010    -0.4020 hc         1 J3Z       0.049200
     37 H215         1.6190     2.3910     1.1590 hc         1 J3Z       0.049200
     38 H17          4.2540     1.7640     0.4070 ha         1 J3Z       0.127000
     39 H19A         4.4630    -2.4540    -0.2970 ha         1 J3Z       0.146000
     40 H20          2.0580    -2.4980    -0.6610 ha         1 J3Z       0.131000
     41 O1          -4.8770    -1.1500    -0.3580 o          1 J3Z      -0.512100
     42 O3           5.8620    -0.3570     0.2810 oh         1 J3Z      -0.495100
@<TRIPOS>BOND
     1     1     9 1   
     2     1    10 1   
     3     1    14 1   
     4     1    19 1   
     5     2     3 1   
     6     2    10 1   
     7     2    20 1   
     8     2    21 1   
     9     3     4 1   
    10     3     5 1   
    11     3     8 1   
    12     4    22 1   
    13     4    23 1   
    14     4    24 1   
    15     5     6 1   
    16     5    41 2   
    17     6     7 1   
    18     6    26 1   
    19     6    27 1   
    20     7     8 1   
    21     7    28 1   
    22     7    29 1   
    23     8     9 1   
    24     8    30 1   
    25     9    11 1   
    26     9    31 1   
    27    10    32 1   
    28    10    33 1   
    29    11    12 1   
    30    11    34 1   
    31    11    35 1   
    32    12    13 1   
    33    12    36 1   
    34    12    37 1   
    35    13    14 ar  
    36    13    15 ar  
    37    14    18 ar  
    38    15    16 ar  
    39    15    38 1   
    40    16    17 ar  
    41    16    42 1   
    42    17    18 ar  
    43    17    39 1   
    44    18    40 1   
    45    25    42 1   
@<TRIPOS>SUBSTRUCTURE
     1 J3Z         1 TEMP              0 ****  ****    0 ROOT
