@<TRIPOS>MOLECULE
J3Z
   42    45     1     0     0
SMALL
No Charge or Current Charge


@<TRIPOS>ATOM
      1 C2           0.2700    -0.4660    -0.5000 c6         1 J3Z      -0.004400
      2 C4          -1.9660    -1.8080    -0.3570 c6         1 J3Z      -0.051400
      3 C5          -2.6970    -0.5630     0.2300 c5         1 J3Z      -0.154000
      4 C6          -2.7620    -0.7050     1.7910 c3         1 J3Z      -0.080100
      5 C7          -4.1150    -0.2980    -0.3180 c          1 J3Z       0.580100
      6 C8          -4.3640     1.1960    -0.0290 c5         1 J3Z      -0.191400
      7 C9          -2.9540     1.8680     0.1190 c5         1 J3Z      -0.066400
      8 C10         -1.9920     0.7190    -0.3100 c5         1 J3Z      -0.060700
      9 C12         -0.4980     0.7850     0.0910 c6         1 J3Z      -0.045700
     10 C3          -0.4340    -1.7930    -0.0500 c6         1 J3Z      -0.071400
     11 C14          0.2370     2.0720    -0.4210 c6         1 J3Z      -0.068400
     12 C15          1.7500     2.1580    -0.0000 c6         1 J3Z      -0.033100
     13 C16          2.4940     0.8120    -0.0700 ca         1 J3Z      -0.031300
     14 C21          1.8280    -0.4300    -0.2790 ca         1 J3Z      -0.102300
     15 C17          3.8920     0.8360     0.1050 ca         1 J3Z      -0.208000
     16 C18          4.6380    -0.3480     0.0600 ca         1 J3Z       0.139100
     17 C19          3.9950    -1.5690    -0.1640 ca         1 J3Z      -0.145000
     18 C20          2.6030    -1.6130    -0.3380 ca         1 J3Z      -0.073000
     19 H2           0.1430    -0.4210    -1.5910 hc         1 J3Z       0.053700
     20 H14         -2.4190    -2.7340     0.0250 hc         1 J3Z       0.051200
     21 H24         -2.1050    -1.8330    -1.4480 hc         1 J3Z       0.051200
     22 H16         -3.2550     0.1440     2.2780 hc         1 J3Z       0.041033
     23 H26         -3.3260    -1.6020     2.0740 hc         1 J3Z       0.041033
     24 H36         -1.7710    -0.7920     2.2480 hc         1 J3Z       0.041033
     25 HO3          6.2570     0.6190     0.3710 ho         1 J3Z       0.463000
     26 H18         -5.0010     1.6340    -0.8050 hc         1 J3Z       0.072200
     27 H28         -4.8840     1.2710     0.9310 hc         1 J3Z       0.072200
     28 H19         -2.8460     2.7530    -0.5170 hc         1 J3Z       0.049200
     29 H29         -2.7660     2.1890     1.1510 hc         1 J3Z       0.049200
     30 H10         -1.9760     0.6920    -1.4080 hc         1 J3Z       0.048700
     31 H12         -0.4160     0.7700     1.1860 hc         1 J3Z       0.057700
     32 H13          0.0030    -2.6530    -0.5720 hc         1 J3Z       0.043700
     33 H23         -0.2540    -1.9640     1.0190 hc         1 J3Z       0.043700
     34 H114         0.1740     2.1070    -1.5170 hc         1 J3Z       0.043700
     35 H214        -0.2830     2.9710    -0.0620 hc         1 J3Z       0.043700
     36 H115         2.2600     2.9050    -0.6230 hc         1 J3Z       0.049200
     37 H215         1.8080     2.5310     1.0310 hc         1 J3Z       0.049200
     38 H17          4.3940     1.7860     0.2760 ha         1 J3Z       0.109000
     39 H19A         4.5760    -2.4870    -0.2090 ha         1 J3Z       0.128000
     40 H20          2.1440    -2.5780    -0.5250 ha         1 J3Z       0.113000
     41 O1          -4.7580    -1.0040    -1.0850 o          1 J3Z      -0.512100
     42 O3           5.9890    -0.3130     0.2280 oh         1 J3Z      -0.534100
@<TRIPOS>BOND
     1     1     9 1   
     2     1    10 1   
     3     1    14 1   
     4     1    19 1   
     5     2     3 1   
     6     2    10 1   
     7     2    20 1   
     8     2    21 1   
     9     3     4 1   
    10     3     5 1   
    11     3     8 1   
    12     4    22 1   
    13     4    23 1   
    14     4    24 1   
    15     5     6 1   
    16     5    41 2   
    17     6     7 1   
    18     6    26 1   
    19     6    27 1   
    20     7     8 1   
    21     7    28 1   
    22     7    29 1   
    23     8     9 1   
    24     8    30 1   
    25     9    11 1   
    26     9    31 1   
    27    10    32 1   
    28    10    33 1   
    29    11    12 1   
    30    11    34 1   
    31    11    35 1   
    32    12    13 1   
    33    12    36 1   
    34    12    37 1   
    35    13    14 ar  
    36    13    15 ar  
    37    14    18 ar  
    38    15    16 ar  
    39    15    38 1   
    40    16    17 ar  
    41    16    42 1   
    42    17    18 ar  
    43    17    39 1   
    44    18    40 1   
    45    25    42 1   
@<TRIPOS>SUBSTRUCTURE
     1 J3Z         1 TEMP              0 ****  ****    0 ROOT
