@<TRIPOS>MOLECULE
J41
   38    41     1     0     0
SMALL
No Charge or Current Charge


@<TRIPOS>ATOM
      1 C10         -5.9600     5.0110   -41.3100 ca         1 J41      -0.110000
      2 C13         -0.9440     2.7360   -41.8520 ca         1 J41      -0.081500
      3 C15         -0.8910     3.1550   -39.4540 ca         1 J41      -0.102000
      4 C17         -1.9060     4.7810   -40.9550 ca         1 J41      -0.081500
      5 C20         -2.1590     5.6040   -47.7580 cc         1 J41      -0.414200
      6 C21         -3.4220     6.0510   -47.3970 cd         1 J41       0.193800
      7 C01         -2.8270     5.3000   -45.1890 cc         1 J41       0.236000
      8 C04         -1.9670     4.3910   -43.4300 cd         1 J41       0.349500
      9 C05         -3.1740     5.0420   -43.8920 cd         1 J41      -0.188000
     10 C06         -4.3620     5.4590   -43.1120 ca         1 J41       0.004000
     11 C07         -5.0450     6.6660   -43.3830 ca         1 J41      -0.107500
     12 C08         -6.1720     7.0380   -42.6290 ca         1 J41      -0.110000
     13 C09         -6.6320     6.2100   -41.5940 ca         1 J41      -0.111000
     14 C11         -4.8330     4.6410   -42.0630 ca         1 J41      -0.107500
     15 C12         -1.6340     3.9500   -42.0630 ca         1 J41      -0.130500
     16 C14         -0.5850     2.3360   -40.5530 ca         1 J41      -0.119000
     17 C16         -1.5470     4.3800   -39.6570 ca         1 J41      -0.119000
     18 C18         -1.1700     4.9430   -46.8750 c          1 J41       0.566000
     19 N02         -1.6190     4.8180   -45.5570 n          1 J41       0.135000
     20 N03         -1.0850     4.2430   -44.4190 nc         1 J41      -0.471800
     21 N22         -3.7540     5.8470   -46.0560 na         1 J41      -0.787000
     22 O19         -0.0780     4.5480   -47.2680 o          1 J41      -0.471000
     23 H101        -6.3150     4.3660   -40.5090 ha         1 J41       0.113500
     24 H131        -0.6950     2.0960   -42.6960 ha         1 J41       0.124000
     25 H151        -0.6120     2.8460   -38.4490 ha         1 J41       0.111000
     26 H171        -2.3950     5.7420   -41.0990 ha         1 J41       0.124000
     27 H201        -1.8200     5.7120   -48.7810 ha         1 J41       0.222000
     28 H071        -4.6830     7.3510   -44.1450 ha         1 J41       0.116500
     29 H081        -6.6820     7.9750   -42.8410 ha         1 J41       0.113500
     30 H091        -7.5040     6.4990   -41.0110 ha         1 J41       0.113000
     31 H111        -4.3400     3.6980   -41.8420 ha         1 J41       0.116500
     32 H141        -0.0650     1.3930   -40.4000 ha         1 J41       0.113000
     33 H161        -1.7720     5.0230   -38.8090 ha         1 J41       0.113000
     34 H233        -4.7450     7.6630   -47.9330 hc         1 J41       0.064367
     35 H231        -3.9850     6.8610   -49.3150 hc         1 J41       0.064367
     36 H232        -5.3020     6.0590   -48.4450 hc         1 J41       0.064367
     37 H221        -4.6840     6.0870   -45.7180 hn         1 J41       0.527000
     38 C23         -4.4160     6.6920   -48.3210 c3         1 J41      -0.071900
@<TRIPOS>BOND
     1     1    13 ar  
     2     1    14 ar  
     3     1    23 1   
     4     2    15 ar  
     5     2    16 ar  
     6     2    24 1   
     7     3    16 ar  
     8     3    17 ar  
     9     3    25 1   
    10     4    15 ar  
    11     4    17 ar  
    12     4    26 1   
    13     5     6 2   
    14     5    18 1   
    15     5    27 1   
    16     6    21 1   
    17     6    38 1   
    18     7     9 2   
    19     7    19 1   
    20     7    21 1   
    21     8     9 1   
    22     8    15 1   
    23     8    20 2   
    24     9    10 1   
    25    10    11 ar  
    26    10    14 ar  
    27    11    12 ar  
    28    11    28 1   
    29    12    13 ar  
    30    12    29 1   
    31    13    30 1   
    32    14    31 1   
    33    16    32 1   
    34    17    33 1   
    35    18    19 1   
    36    18    22 2   
    37    19    20 1   
    38    21    37 1   
    39    34    38 1   
    40    35    38 1   
    41    36    38 1   
@<TRIPOS>SUBSTRUCTURE
     1 J41         1 TEMP              0 ****  ****    0 ROOT
