@<TRIPOS>MOLECULE
J41
   38    41     1     0     0
SMALL
bcc


@<TRIPOS>ATOM
      1 C10         -6.1180     4.9120   -41.4660 ca         1 J41      -0.128000
      2 C13         -0.9000     2.8740   -41.9230 ca         1 J41      -0.099500
      3 C15         -0.8380     3.2080   -39.5410 ca         1 J41      -0.120000
      4 C17         -1.9280     4.8200   -40.9570 ca         1 J41      -0.099500
      5 C20         -2.1740     5.4020   -47.7680 cc         1 J41      -0.364200
      6 C21         -3.3900     5.9180   -47.4300 cd         1 J41       0.193800
      7 C01         -3.0250     5.3580   -45.1680 cc         1 J41       0.148300
      8 C04         -2.0020     4.5090   -43.4280 cd         1 J41       0.414800
      9 C05         -3.1930     5.1790   -43.8120 cd         1 J41      -0.253300
     10 C06         -4.3680     5.5380   -43.0110 ca         1 J41       0.004000
     11 C07         -4.8710     6.8390   -43.0230 ca         1 J41      -0.125500
     12 C08         -5.9900     7.1720   -42.2690 ca         1 J41      -0.128000
     13 C09         -6.6140     6.2110   -41.4870 ca         1 J41      -0.129000
     14 C11         -5.0080     4.5770   -42.2250 ca         1 J41      -0.125500
     15 C12         -1.6150     4.0610   -42.0850 ca         1 J41      -0.130500
     16 C14         -0.5160     2.4500   -40.6600 ca         1 J41      -0.137000
     17 C16         -1.5420     4.3950   -39.6950 ca         1 J41      -0.137000
     18 C18         -1.2910     4.8020   -46.8120 c          1 J41       0.641500
     19 N02         -1.8220     4.8220   -45.5080 n          1 J41       0.084300
     20 N03         -1.1920     4.3040   -44.4480 nc         1 J41      -0.471800
     21 N22         -3.8030     5.8960   -46.1420 na         1 J41      -0.593400
     22 O19         -0.2030     4.3080   -47.0260 o          1 J41      -0.546500
     23 H101        -6.6020     4.1560   -40.8610 ha         1 J41       0.131500
     24 H131        -0.6540     2.2740   -42.7890 ha         1 J41       0.142000
     25 H151        -0.5410     2.8750   -38.5550 ha         1 J41       0.129000
     26 H171        -2.4610     5.7560   -41.0630 ha         1 J41       0.142000
     27 H201        -1.8550     5.4290   -48.8000 ha         1 J41       0.172000
     28 H071        -4.3740     7.6020   -43.6100 ha         1 J41       0.134500
     29 H081        -6.3660     8.1860   -42.2880 ha         1 J41       0.131500
     30 H091        -7.4820     6.4710   -40.8960 ha         1 J41       0.131000
     31 H111        -4.6350     3.5610   -42.2140 ha         1 J41       0.134500
     32 H141         0.0330     1.5240   -40.5490 ha         1 J41       0.131000
     33 H161        -1.7880     4.9960   -38.8290 ha         1 J41       0.131000
     34 H233        -5.2420     6.8690   -47.9880 hc         1 J41       0.064367
     35 H231        -3.8330     7.3710   -48.9240 hc         1 J41       0.064367
     36 H232        -4.5540     5.7940   -49.2070 hc         1 J41       0.064367
     37 H221        -4.7080     6.2690   -45.8900 hn         1 J41       0.471800
     38 C23         -4.3120     6.5240   -48.4360 c3         1 J41      -0.071900
@<TRIPOS>BOND
     1     1    13 ar  
     2     1    14 ar  
     3     1    23 1   
     4     2    15 ar  
     5     2    16 ar  
     6     2    24 1   
     7     3    16 ar  
     8     3    17 ar  
     9     3    25 1   
    10     4    15 ar  
    11     4    17 ar  
    12     4    26 1   
    13     5     6 2   
    14     5    18 1   
    15     5    27 1   
    16     6    21 1   
    17     6    38 1   
    18     7     9 2   
    19     7    19 1   
    20     7    21 1   
    21     8     9 1   
    22     8    15 1   
    23     8    20 2   
    24     9    10 1   
    25    10    11 ar  
    26    10    14 ar  
    27    11    12 ar  
    28    11    28 1   
    29    12    13 ar  
    30    12    29 1   
    31    13    30 1   
    32    14    31 1   
    33    16    32 1   
    34    17    33 1   
    35    18    19 1   
    36    18    22 2   
    37    19    20 1   
    38    21    37 1   
    39    34    38 1   
    40    35    38 1   
    41    36    38 1   
@<TRIPOS>SUBSTRUCTURE
     1 J41         1 TEMP              0 ****  ****    0 ROOT
