@<TRIPOS>MOLECULE
J43
   33    34     1     0     0
SMALL
No Charge or Current Charge


@<TRIPOS>ATOM
      1 N1           3.7430    -1.0400    -0.0610 nb         1 J43      -0.237000
      2 C2           2.5110    -1.5120     0.1960 ca         1 J43       0.298300
      3 N3           1.3950    -0.7710     0.2940 nb         1 J43      -0.251000
      4 C4           1.5170     0.5540     0.1190 ca         1 J43       0.435900
      5 C5           2.7560     1.1550    -0.1400 ca         1 J43      -0.374600
      6 C6           3.8670     0.2880    -0.2280 ca         1 J43       0.297000
      7 N7           0.3570     1.3040     0.2730 nu         1 J43      -0.927900
      8 C8          -1.0030     0.9940     0.1840 ca         1 J43       0.355000
      9 C9          -1.9250     1.7830     0.8870 ca         1 J43      -0.168000
     10 C10         -3.3020     1.5130     0.8130 ca         1 J43       0.020000
     11 C11         -3.7660     0.4470     0.0180 ca         1 J43      -0.302500
     12 C12         -2.8450    -0.3400    -0.7030 ca         1 J43       0.020000
     13 C13         -1.4710    -0.0600    -0.6200 ca         1 J43      -0.168000
     14 S14         -5.5210     0.1010    -0.0760 sy         1 J43       1.132600
     15 O15         -5.7410    -1.2280    -0.6400 o          1 J43      -0.544000
     16 O16         -6.2040     0.5800     1.1260 o          1 J43      -0.544000
     17 N17         -5.9930     1.1150    -1.2680 n8         1 J43      -1.003100
     18 C18          2.8610     2.6330    -0.3500 c          1 J43       0.599500
     19 O19          3.8810     3.2830    -0.1590 o          1 J43      -0.494100
     20 Cl20         5.5010     0.8240    -0.6140 cl         1 J43      -0.109000
     21 S21          2.3110    -3.2770     0.4260 ss         1 J43      -0.262300
     22 C22          4.0170    -3.9660     0.2200 c3         1 J43       0.016900
     23 HN7          0.5240     2.2410     0.6330 hn         1 J43       0.506000
     24 H9          -1.5770     2.6070     1.5040 ha         1 J43       0.136500
     25 H10         -4.0010     2.1340     1.3720 ha         1 J43       0.140000
     26 H12         -3.1850    -1.1640    -1.3300 ha         1 J43       0.140000
     27 H13         -0.7750    -0.6590    -1.1970 ha         1 J43       0.136500
     28 HN17        -5.1250     1.2780    -1.7710 hn         1 J43       0.472500
     29 HN1A        -6.5080     0.4780    -1.8710 hn         1 J43       0.472500
     30 H18          1.9290     3.1510    -0.6630 h4         1 J43      -0.023800
     31 H22          3.9920    -5.0560     0.3450 h1         1 J43       0.077033
     32 H22A         4.3970    -3.7300    -0.7820 h1         1 J43       0.077033
     33 H22B         4.6880    -3.5350     0.9730 h1         1 J43       0.077033
@<TRIPOS>BOND
     1     1     2 ar  
     2     1     6 ar  
     3     2     3 ar  
     4     2    21 1   
     5     3     4 ar  
     6     4     5 ar  
     7     4     7 1   
     8     5     6 ar  
     9     5    18 1   
    10     6    20 1   
    11     7     8 1   
    12     7    23 1   
    13     8     9 ar  
    14     8    13 ar  
    15     9    10 ar  
    16     9    24 1   
    17    10    11 ar  
    18    10    25 1   
    19    11    12 ar  
    20    11    14 1   
    21    12    13 ar  
    22    12    26 1   
    23    13    27 1   
    24    14    15 2   
    25    14    16 2   
    26    14    17 1   
    27    17    28 1   
    28    17    29 1   
    29    18    19 2   
    30    18    30 1   
    31    21    22 1   
    32    22    31 1   
    33    22    32 1   
    34    22    33 1   
@<TRIPOS>SUBSTRUCTURE
     1 J43         1 TEMP              0 ****  ****    0 ROOT
