@<TRIPOS>MOLECULE
J43
   33    34     1     0     0
SMALL
bcc


@<TRIPOS>ATOM
      1 N1           3.7530    -0.9980     0.0690 nb         1 J43      -0.763000
      2 C2           2.5170    -1.4750     0.0270 ca         1 J43       0.824300
      3 N3           1.4030    -0.7680     0.0530 nb         1 J43      -0.777000
      4 C4           1.5100     0.5500     0.0950 ca         1 J43       0.764200
      5 C5           2.7860     1.1940     0.0680 ca         1 J43      -0.505200
      6 C6           3.8640     0.3100     0.0870 ca         1 J43       0.625300
      7 N7           0.3790     1.2830     0.1950 nu         1 J43      -0.734300
      8 C8          -0.9600     0.9020     0.1290 ca         1 J43       0.216600
      9 C9          -1.8840     1.8790     0.5230 ca         1 J43      -0.186000
     10 C10         -3.2380     1.6380     0.4670 ca         1 J43       0.002000
     11 C11         -3.6920     0.4040     0.0130 ca         1 J43      -0.302500
     12 C12         -2.7920    -0.5730    -0.3770 ca         1 J43       0.002000
     13 C13         -1.4270    -0.3330    -0.3220 ca         1 J43      -0.186000
     14 S14         -5.4270     0.0970    -0.0510 sy         1 J43       1.274200
     15 O15         -5.6220    -1.3320    -0.2570 o          1 J43      -0.614800
     16 O16         -6.0770     0.7230     1.0920 o          1 J43      -0.614800
     17 N17         -5.8590     1.0050    -1.3620 n8         1 J43      -0.892700
     18 C18          2.9080     2.6490    -0.0560 c          1 J43       0.599500
     19 O19          3.9200     3.2910     0.0920 o          1 J43      -0.494100
     20 CL20         5.4840     0.8760     0.1040 cl         1 J43      -0.109000
     21 S21          2.2660    -3.1920    -0.0560 ss         1 J43      -0.214400
     22 C22          3.9500    -3.8360    -0.0860 c3         1 J43      -0.031000
     23 HN7          0.4980     2.2600     0.4070 hn         1 J43       0.450800
     24 H9          -1.5340     2.8400     0.8820 ha         1 J43       0.154500
     25 H10         -3.9280     2.4110     0.7790 ha         1 J43       0.158000
     26 H12         -3.1360    -1.5340    -0.7320 ha         1 J43       0.158000
     27 H13         -0.7460    -1.1080    -0.6260 ha         1 J43       0.154500
     28 HN17        -5.5500     0.5990    -2.2390 hn         1 J43       0.417300
     29 HN1A        -6.8620     1.1680    -1.3870 hn         1 J43       0.417300
     30 H18          1.9780     3.1680    -0.3410 h4         1 J43      -0.023800
     31 H22          3.8490    -4.9190    -0.1330 h1         1 J43       0.077033
     32 H22A         4.4880    -3.4880    -0.9640 h1         1 J43       0.077033
     33 H22B         4.4890    -3.5650     0.8170 h1         1 J43       0.077033
@<TRIPOS>BOND
     1     1     2 ar  
     2     1     6 ar  
     3     2     3 ar  
     4     2    21 1   
     5     3     4 ar  
     6     4     5 ar  
     7     4     7 1   
     8     5     6 ar  
     9     5    18 1   
    10     6    20 1   
    11     7     8 1   
    12     7    23 1   
    13     8     9 ar  
    14     8    13 ar  
    15     9    10 ar  
    16     9    24 1   
    17    10    11 ar  
    18    10    25 1   
    19    11    12 ar  
    20    11    14 1   
    21    12    13 ar  
    22    12    26 1   
    23    13    27 1   
    24    14    15 2   
    25    14    16 2   
    26    14    17 1   
    27    17    28 1   
    28    17    29 1   
    29    18    19 2   
    30    18    30 1   
    31    21    22 1   
    32    22    31 1   
    33    22    32 1   
    34    22    33 1   
@<TRIPOS>SUBSTRUCTURE
     1 J43         1 TEMP              0 ****  ****    0 ROOT
