@<TRIPOS>MOLECULE
J45
   29    30     1     0     0
SMALL
No Charge or Current Charge


@<TRIPOS>ATOM
      1 N1           3.9390    -2.0190     0.2260 nb         1 J45      -0.213000
      2 C2           2.6440    -2.3740     0.3030 ca         1 J45       0.222900
      3 N3           1.5830    -1.5480     0.2450 nb         1 J45      -0.260000
      4 C4           1.8350    -0.2370     0.0890 ca         1 J45       0.453900
      5 C5           3.1520     0.2430     0.0230 ca         1 J45      -0.376200
      6 C6           4.1900    -0.7050     0.0900 ca         1 J45       0.296000
      7 N7           0.7340     0.6150     0.0620 nu         1 J45      -0.910900
      8 C8          -0.6510     0.4260     0.0160 ca         1 J45       0.340000
      9 C9          -1.4800     1.4140     0.5700 ca         1 J45      -0.150500
     10 C10         -2.8780     1.2800     0.5380 ca         1 J45       0.013000
     11 C11         -3.4610     0.1490    -0.0660 ca         1 J45      -0.286500
     12 C12         -2.6360    -0.8370    -0.6420 ca         1 J45       0.013000
     13 C13         -1.2380    -0.6930    -0.6020 ca         1 J45      -0.150500
     14 S14         -5.2450    -0.0290    -0.1140 sy         1 J45       1.130600
     15 O15         -5.6260    -1.4210    -0.3360 o          1 J45      -0.541500
     16 O16         -5.8810     0.8030     0.9040 o          1 J45      -0.541500
     17 N17         -5.6460     0.7050    -1.5130 n8         1 J45      -1.007100
     18 N18          3.4640     1.6720    -0.0990 no         1 J45       0.721200
     19 O19          4.1610     2.1780     0.7860 o          1 J45      -0.392500
     20 O20          2.8670     2.3210    -0.9630 o          1 J45      -0.392500
     21 Cl21         5.8920    -0.2650    -0.0440 cl         1 J45      -0.085000
     22 H2           2.4330    -3.4350     0.4210 h5         1 J45       0.067100
     23 HN7          0.9970     1.5980     0.1080 hn         1 J45       0.539000
     24 H9          -1.0410     2.2900     1.0410 ha         1 J45       0.138000
     25 H10         -3.5020     2.0570     0.9790 ha         1 J45       0.142000
     26 H12         -3.0710    -1.7100    -1.1280 ha         1 J45       0.142000
     27 H13         -0.6220    -1.4480    -1.0760 ha         1 J45       0.138000
     28 HN17        -6.2040    -0.0250    -1.9490 hn         1 J45       0.475500
     29 HN1A        -6.3610     1.3490    -1.1830 hn         1 J45       0.475500
@<TRIPOS>BOND
     1     1     2 ar  
     2     1     6 ar  
     3     2     3 ar  
     4     2    22 1   
     5     3     4 ar  
     6     4     5 ar  
     7     4     7 1   
     8     5     6 ar  
     9     5    18 1   
    10     6    21 1   
    11     7     8 1   
    12     7    23 1   
    13     8     9 ar  
    14     8    13 ar  
    15     9    10 ar  
    16     9    24 1   
    17    10    11 ar  
    18    10    25 1   
    19    11    12 ar  
    20    11    14 1   
    21    12    13 ar  
    22    12    26 1   
    23    13    27 1   
    24    14    15 2   
    25    14    16 2   
    26    14    17 1   
    27    17    28 1   
    28    17    29 1   
    29    18    19 1   
    30    18    20 1   
@<TRIPOS>SUBSTRUCTURE
     1 J45         1 TEMP              0 ****  ****    0 ROOT
