@<TRIPOS>MOLECULE
J45
   29    30     1     0     0
SMALL
bcc


@<TRIPOS>ATOM
      1 N1           3.7940    -1.9940     0.1400 nb         1 J45      -0.739000
      2 C2           2.5050    -2.3080     0.1560 ca         1 J45       0.748900
      3 N3           1.4950    -1.4780     0.0810 nb         1 J45      -0.786000
      4 C4           1.7450    -0.1710     0.0070 ca         1 J45       0.782200
      5 C5           3.0970     0.2740     0.0800 ca         1 J45      -0.506800
      6 C6           4.0770    -0.7140     0.1100 ca         1 J45       0.624300
      7 N7           0.7060     0.6730    -0.0930 nu         1 J45      -0.717300
      8 C8          -0.6660     0.4000    -0.0720 ca         1 J45       0.201600
      9 C9          -1.4860     1.4570     0.3360 ca         1 J45      -0.168500
     10 C10         -2.8570     1.3190     0.3560 ca         1 J45      -0.005000
     11 C11         -3.4240     0.1120    -0.0350 ca         1 J45      -0.286500
     12 C12         -2.6250    -0.9410    -0.4460 ca         1 J45      -0.005000
     13 C13         -1.2460    -0.8030    -0.4720 ca         1 J45      -0.168500
     14 S14         -5.1810    -0.0660    -0.0030 sy         1 J45       1.272200
     15 O15         -5.4870    -1.4820    -0.1640 o          1 J45      -0.612300
     16 O16         -5.7210     0.6310     1.1560 o          1 J45      -0.612300
     17 N17         -5.6170     0.8370    -1.3140 n8         1 J45      -0.896700
     18 N18          3.4310     1.6740     0.1350 no         1 J45       0.341200
     19 O19          4.3810     2.0120     0.7890 o          1 J45      -0.202500
     20 O20          2.7180     2.4460    -0.4770 o          1 J45      -0.202500
     21 CL21         5.7480    -0.3480     0.0280 cl         1 J45      -0.085000
     22 H2           2.2660    -3.3620     0.2270 h5         1 J45       0.067100
     23 HN7          0.9350     1.6550    -0.1460 hn         1 J45       0.483800
     24 H9          -1.0420     2.3930     0.6520 ha         1 J45       0.156000
     25 H10         -3.4690     2.1500     0.6810 ha         1 J45       0.160000
     26 H12         -3.0600    -1.8790    -0.7620 ha         1 J45       0.160000
     27 H13         -0.6440    -1.6300    -0.8080 ha         1 J45       0.156000
     28 HN17        -5.4390     0.3640    -2.1940 hn         1 J45       0.420300
     29 HN1A        -6.5880     1.1310    -1.2600 hn         1 J45       0.420300
@<TRIPOS>BOND
     1     1     2 ar  
     2     1     6 ar  
     3     2     3 ar  
     4     2    22 1   
     5     3     4 ar  
     6     4     5 ar  
     7     4     7 1   
     8     5     6 ar  
     9     5    18 1   
    10     6    21 1   
    11     7     8 1   
    12     7    23 1   
    13     8     9 ar  
    14     8    13 ar  
    15     9    10 ar  
    16     9    24 1   
    17    10    11 ar  
    18    10    25 1   
    19    11    12 ar  
    20    11    14 1   
    21    12    13 ar  
    22    12    26 1   
    23    13    27 1   
    24    14    15 2   
    25    14    16 2   
    26    14    17 1   
    27    17    28 1   
    28    17    29 1   
    29    18    19 1   
    30    18    20 1   
@<TRIPOS>SUBSTRUCTURE
     1 J45         1 TEMP              0 ****  ****    0 ROOT
