@<TRIPOS>MOLECULE
J46
   44    46     1     0     0
SMALL
bcc


@<TRIPOS>ATOM
      1 C10        193.0870   164.5050   226.3170 ca         1 J46      -0.113000
      2 C13        194.0510   164.7570   225.3550 ca         1 J46      -0.132500
      3 C15        194.6560   163.7040   224.6770 ca         1 J46      -0.112000
      4 C17        197.2920   159.6810   225.2870 ca         1 J46      -0.167500
      5 C20        198.6850   159.1670   223.4140 ca         1 J46      -0.044900
      6 BR1        193.7390   166.3470   230.1670 br         1 J46      -0.061100
      7 BR2        199.2310   157.9690   222.0610 br         1 J46      -0.094100
      8 S01        193.3830   162.9840   229.7880 sy         1 J46       1.310200
      9 O01        193.2790   163.4090   231.1690 o          1 J46      -0.598800
     10 O02        193.6020   161.5820   229.4770 o          1 J46      -0.598800
     11 O03        198.2060   163.8000   225.7810 o          1 J46      -0.580100
     12 N01        192.0070   163.4210   229.0240 n7         1 J46      -0.838100
     13 N02        197.3670   161.7850   226.3930 ns         1 J46      -0.463100
     14 C01        194.7320   163.8900   229.0300 ca         1 J46      -0.269500
     15 C03        195.5880   163.1720   228.2060 ca         1 J46      -0.005000
     16 C04        196.6140   163.8020   227.5170 ca         1 J46      -0.159600
     17 C05        192.7200   163.1960   226.6240 ca         1 J46      -0.149300
     18 C06        194.9130   165.2620   229.1800 ca         1 J46       0.078100
     19 C07        196.8060   165.1670   227.7100 ca         1 J46      -0.027000
     20 C08        195.9700   165.8910   228.5380 ca         1 J46      -0.136000
     21 C09        197.4770   163.1320   226.4910 c          1 J46       0.691700
     22 C11        193.3290   162.1490   225.9430 ca         1 J46      -0.113000
     23 C12        197.8610   160.9540   225.3840 ca         1 J46       0.079600
     24 C14        194.2890   162.3990   224.9700 ca         1 J46      -0.132500
     25 C16        198.8660   161.3120   224.4870 ca         1 J46      -0.167500
     26 C18        199.2710   160.4180   223.5050 ca         1 J46      -0.075500
     27 C19        197.6980   158.7880   224.3130 ca         1 J46      -0.075500
     28 H1         192.6270   165.3330   226.8440 ha         1 J46       0.135000
     29 H2         194.3360   165.7780   225.1330 ha         1 J46       0.138500
     30 H3         195.4090   163.9020   223.9250 ha         1 J46       0.144000
     31 H4         196.5120   159.3830   225.9770 ha         1 J46       0.152000
     32 H5         191.6780   164.3540   229.2410 hn         1 J46       0.441800
     33 H6         196.7510   161.3190   227.0390 hn         1 J46       0.325500
     34 H7         190.7380   163.3730   227.4310 h1         1 J46       0.073700
     35 H8         191.5100   161.8390   227.7580 h1         1 J46       0.073700
     36 H9         195.3960   162.1140   228.0970 ha         1 J46       0.158000
     37 H10        197.6030   165.6810   227.1920 ha         1 J46       0.165000
     38 H11        196.1310   166.9530   228.6610 ha         1 J46       0.156000
     39 H12        193.0590   161.1270   226.1800 ha         1 J46       0.135000
     40 H13        194.7570   161.5720   224.4500 ha         1 J46       0.138500
     41 H14        199.3470   162.2740   224.5380 ha         1 J46       0.152000
     42 H15        200.0500   160.7180   222.8170 ha         1 J46       0.149500
     43 H16        197.2340   157.8120   224.2610 ha         1 J46       0.149500
     44 C02        191.6910   162.9110   227.6900 c3         1 J46       0.264100
@<TRIPOS>BOND
     1     1     2 ar  
     2     1    17 ar  
     3     1    28 1   
     4     2     3 ar  
     5     2    29 1   
     6     3    24 ar  
     7     3    30 1   
     8     4    23 ar  
     9     4    27 ar  
    10     4    31 1   
    11     5     7 1   
    12     5    26 ar  
    13     5    27 ar  
    14     6    18 1   
    15     8     9 2   
    16     8    10 2   
    17     8    12 1   
    18     8    14 1   
    19    11    21 2   
    20    12    32 1   
    21    12    44 1   
    22    13    21 1   
    23    13    23 1   
    24    13    33 1   
    25    14    15 ar  
    26    14    18 ar  
    27    15    16 ar  
    28    15    36 1   
    29    16    19 ar  
    30    16    21 1   
    31    17    22 ar  
    32    17    44 1   
    33    18    20 ar  
    34    19    20 ar  
    35    19    37 1   
    36    20    38 1   
    37    22    24 ar  
    38    22    39 1   
    39    23    25 ar  
    40    24    40 1   
    41    25    26 ar  
    42    25    41 1   
    43    26    42 1   
    44    27    43 1   
    45    34    44 1   
    46    35    44 1   
@<TRIPOS>SUBSTRUCTURE
     1 J46         1 TEMP              0 ****  ****    0 ROOT
