@<TRIPOS>MOLECULE
J46
   44    46     1     0     0
SMALL
No Charge or Current Charge


@<TRIPOS>ATOM
      1 C10        193.0370   164.4790   226.2070 ca         1 J46      -0.095000
      2 C13        194.0010   164.5950   225.1910 ca         1 J46      -0.114500
      3 C15        194.5470   163.4430   224.6010 ca         1 J46      -0.094000
      4 C17        197.2880   159.7330   225.2150 ca         1 J46      -0.149500
      5 C20        198.8230   159.1210   223.4330 ca         1 J46      -0.044900
      6 Br1        193.8030   166.2290   230.5690 br         1 J46      -0.061100
      7 Br2        199.5030   157.8220   222.2050 br         1 J46      -0.094100
      8 S01        193.3680   162.9040   229.7960 sy         1 J46       1.168600
      9 O01        193.1990   163.2030   231.2200 o          1 J46      -0.528000
     10 O02        193.4220   161.5220   229.3110 o          1 J46      -0.528000
     11 O03        198.5250   163.8670   226.0600 o          1 J46      -0.580100
     12 N01        192.0670   163.6310   229.0370 n7         1 J46      -0.893300
     13 N02        197.2520   161.9500   226.1800 ns         1 J46      -0.137000
     14 C01        194.7330   163.8540   229.0910 ca         1 J46      -0.269500
     15 C03        195.5950   163.2110   228.1740 ca         1 J46       0.013000
     16 C04        196.6570   163.9110   227.5510 ca         1 J46      -0.159600
     17 C05        192.6200   163.2060   226.6520 ca         1 J46      -0.149300
     18 C06        194.9410   165.2220   229.3920 ca         1 J46       0.078100
     19 C07        196.8540   165.2690   227.8800 ca         1 J46      -0.009000
     20 C08        196.0030   165.9120   228.7900 ca         1 J46      -0.118000
     21 C09        197.5690   163.2580   226.5310 c          1 J46       0.624700
     22 C11        193.1690   162.0540   226.0500 ca         1 J46      -0.095000
     23 C12        197.8180   161.0380   225.2470 ca         1 J46      -0.013000
     24 C14        194.1270   162.1730   225.0280 ca         1 J46      -0.114500
     25 C16        198.8570   161.3750   224.3510 ca         1 J46      -0.149500
     26 C18        199.3570   160.4180   223.4490 ca         1 J46      -0.057500
     27 C19        197.7870   158.7760   224.3140 ca         1 J46      -0.057500
     28 H1         192.6170   165.3800   226.6490 ha         1 J46       0.117000
     29 H2         194.3230   165.5800   224.8590 ha         1 J46       0.120500
     30 H3         195.2910   163.5350   223.8120 ha         1 J46       0.126000
     31 H4         196.4830   159.4540   225.8930 ha         1 J46       0.134000
     32 H5         192.4610   164.5450   228.8340 hn         1 J46       0.497000
     33 H6         196.4450   161.5790   226.6620 hn         1 J46       0.159000
     34 H7         190.6770   163.6080   227.4430 h1         1 J46       0.073700
     35 H8         191.2880   162.0180   227.8810 h1         1 J46       0.073700
     36 H9         195.4220   162.1630   227.9410 ha         1 J46       0.140000
     37 H10        197.6600   165.8380   227.4210 ha         1 J46       0.147000
     38 H11        196.1620   166.9630   229.0200 ha         1 J46       0.138000
     39 H12        192.8560   161.0640   226.3760 ha         1 J46       0.117000
     40 H13        194.5450   161.2800   224.5680 ha         1 J46       0.120500
     41 H14        199.2890   162.3710   224.3300 ha         1 J46       0.134000
     42 H15        200.1580   160.6860   222.7630 ha         1 J46       0.131500
     43 H16        197.3700   157.7710   224.3010 ha         1 J46       0.131500
     44 C02        191.5810   163.0720   227.7630 c3         1 J46       0.264100
@<TRIPOS>BOND
     1     1     2 ar  
     2     1    17 ar  
     3     1    28 1   
     4     2     3 ar  
     5     2    29 1   
     6     3    24 ar  
     7     3    30 1   
     8     4    23 ar  
     9     4    27 ar  
    10     4    31 1   
    11     5     7 1   
    12     5    26 ar  
    13     5    27 ar  
    14     6    18 1   
    15     8     9 2   
    16     8    10 2   
    17     8    12 1   
    18     8    14 1   
    19    11    21 2   
    20    12    32 1   
    21    12    44 1   
    22    13    21 1   
    23    13    23 1   
    24    13    33 1   
    25    14    15 ar  
    26    14    18 ar  
    27    15    16 ar  
    28    15    36 1   
    29    16    19 ar  
    30    16    21 1   
    31    17    22 ar  
    32    17    44 1   
    33    18    20 ar  
    34    19    20 ar  
    35    19    37 1   
    36    20    38 1   
    37    22    24 ar  
    38    22    39 1   
    39    23    25 ar  
    40    24    40 1   
    41    25    26 ar  
    42    25    41 1   
    43    26    42 1   
    44    27    43 1   
    45    34    44 1   
    46    35    44 1   
@<TRIPOS>SUBSTRUCTURE
     1 J46         1 TEMP              0 ****  ****    0 ROOT
