@<TRIPOS>MOLECULE
J47
   25    26     1     0     0
SMALL
bcc


@<TRIPOS>ATOM
      1 N1          -1.2160    -4.1940    -0.2050 n1         1 J47      -0.349800
      2 C1          -1.3080    -3.0460    -0.1820 cg         1 J47       0.239800
      3 C2          -1.4400    -1.6280    -0.1590 ca         1 J47      -0.047000
      4 C3          -2.7030    -1.0460    -0.2370 ca         1 J47      -0.033000
      5 C4          -2.8100     0.3320    -0.2190 ca         1 J47      -0.060900
      6 BR1         -4.5080     1.1350    -0.3250 br         1 J47      -0.074100
      7 C5          -1.6740     1.1260    -0.1240 ca         1 J47      -0.047000
      8 C6          -0.4180     0.5470    -0.0440 ca         1 J47      -0.201000
      9 C7          -0.2940    -0.8340    -0.0590 ca         1 J47       0.170100
     10 O1           0.8790    -1.5010     0.0320 os         1 J47      -0.241200
     11 C8           2.0590    -0.7980    -0.0800 ca         1 J47      -0.019900
     12 C9           2.5190    -0.3760    -1.3140 ca         1 J47      -0.085000
     13 C10          2.7900    -0.5610     1.0840 ca         1 J47       0.164100
     14 O2           2.3800    -0.9570     2.2950 oh         1 J47      -0.481100
     15 C11          4.0000     0.1210     0.9860 ca         1 J47      -0.160000
     16 C12          4.4410     0.5490    -0.2540 ca         1 J47       0.067400
     17 CL1          5.9440     1.4010    -0.3550 cl         1 J47      -0.092400
     18 C13          3.7200     0.3070    -1.4150 ca         1 J47      -0.153000
     19 H1          -3.5750    -1.6810    -0.3140 ha         1 J47       0.163000
     20 H2          -1.7520     2.2040    -0.1070 ha         1 J47       0.154000
     21 H3           0.4490     1.1880     0.0300 ha         1 J47       0.157000
     22 H4           1.9370    -0.5800    -2.2040 ha         1 J47       0.154000
     23 H5           1.5950    -1.5150     2.2350 ho         1 J47       0.448000
     24 H6           4.5780     0.3110     1.8810 ha         1 J47       0.169000
     25 H7           4.0820     0.6390    -2.3770 ha         1 J47       0.157000
@<TRIPOS>BOND
     1     1     2 3   
     2     2     3 1   
     3     3     4 ar  
     4     3     9 ar  
     5     4     5 ar  
     6     4    19 1   
     7     5     6 1   
     8     5     7 ar  
     9     7     8 ar  
    10     7    20 1   
    11     8     9 ar  
    12     8    21 1   
    13     9    10 1   
    14    10    11 1   
    15    11    12 ar  
    16    11    13 ar  
    17    12    18 ar  
    18    12    22 1   
    19    13    14 1   
    20    13    15 ar  
    21    14    23 1   
    22    15    16 ar  
    23    15    24 1   
    24    16    17 1   
    25    16    18 ar  
    26    18    25 1   
@<TRIPOS>SUBSTRUCTURE
     1 J47         1 TEMP              0 ****  ****    0 ROOT
