@<TRIPOS>MOLECULE
J47
   25    26     1     0     0
SMALL
No Charge or Current Charge


@<TRIPOS>ATOM
      1 N1          -1.0640    -4.1850    -0.1310 n1         1 J47      -0.439000
      2 C1          -1.2180    -3.0270    -0.1430 cg         1 J47       0.329000
      3 C2          -1.4240    -1.6060    -0.1630 ca         1 J47      -0.047000
      4 C3          -2.6630    -1.0890    -0.5910 ca         1 J47      -0.015000
      5 C4          -2.8760     0.3000    -0.6150 ca         1 J47      -0.060900
      6 Br1         -4.5610     0.9950    -1.1950 br         1 J47      -0.074100
      7 C5          -1.8590     1.1810    -0.2100 ca         1 J47      -0.029000
      8 C6          -0.6220     0.6680     0.2160 ca         1 J47      -0.183000
      9 C7          -0.3970    -0.7230     0.2310 ca         1 J47       0.170100
     10 O1           0.8150    -1.2210     0.6620 os         1 J47      -0.241200
     11 C8           2.0270    -0.6740     0.2910 ca         1 J47      -0.019900
     12 C9           2.2150    -0.1350    -1.0000 ca         1 J47      -0.067000
     13 C10          3.1000    -0.6870     1.2070 ca         1 J47       0.164100
     14 O2           2.9320    -1.2210     2.4510 oh         1 J47      -0.520100
     15 C11          4.3430    -0.1470     0.8450 ca         1 J47      -0.142000
     16 C12          4.5230     0.4010    -0.4350 ca         1 J47       0.159000
     17 Cl1          6.0820     1.0760    -0.8880 cl         1 J47      -0.184000
     18 C13          3.4630     0.4050    -1.3570 ca         1 J47      -0.135000
     19 H1          -3.4610    -1.7610    -0.9020 ha         1 J47       0.145000
     20 H2          -2.0290     2.2560    -0.2250 ha         1 J47       0.136000
     21 H3           0.1610     1.3510     0.5380 ha         1 J47       0.139000
     22 H4           1.4040    -0.1380    -1.7250 ha         1 J47       0.136000
     23 H5           2.0070    -1.5480     2.5030 ho         1 J47       0.487000
     24 H6           5.1660    -0.1530     1.5540 ha         1 J47       0.151000
     25 H7           3.6120     0.8240    -2.3500 ha         1 J47       0.139000
@<TRIPOS>BOND
     1     1     2 3   
     2     2     3 1   
     3     3     4 ar  
     4     3     9 ar  
     5     4     5 ar  
     6     4    19 1   
     7     5     6 1   
     8     5     7 ar  
     9     7     8 ar  
    10     7    20 1   
    11     8     9 ar  
    12     8    21 1   
    13     9    10 1   
    14    10    11 1   
    15    11    12 ar  
    16    11    13 ar  
    17    12    18 ar  
    18    12    22 1   
    19    13    14 1   
    20    13    15 ar  
    21    14    23 1   
    22    15    16 ar  
    23    15    24 1   
    24    16    17 1   
    25    16    18 ar  
    26    18    25 1   
@<TRIPOS>SUBSTRUCTURE
     1 J47         1 TEMP              0 ****  ****    0 ROOT
