@<TRIPOS>MOLECULE
J48
   63    67     1     0     0
SMALL
abcg2


@<TRIPOS>ATOM
      1 C8          -2.0890     0.4270     0.5570 ca         1 J48       0.292400
      2 C9          -1.7810     0.3470     1.9480 ca         1 J48      -0.180000
      3 C10         -1.2790    -0.8150     2.4360 ca         1 J48      -0.032000
      4 C11          3.1240    -3.9100     0.5400 ca         1 J48      -0.014000
      5 C12          2.8190    -2.6070     0.9480 ca         1 J48      -0.150500
      6 C13          2.1310    -1.7550     0.0490 ca         1 J48       0.118000
      7 N1          -1.2460    -2.6890    -0.7050 nb         1 J48      -0.130500
      8 C6          -0.7340    -3.8340    -0.3200 ca         1 J48       0.059800
      9 C3          -1.0780    -1.9070     1.5560 ca         1 J48      -0.150500
     10 C5          -0.3960    -4.1330     0.9870 ca         1 J48      -0.175000
     11 C4          -0.5630    -3.1530     1.9370 ca         1 J48      -0.014000
     12 C2          -1.4220    -1.7140     0.1960 ca         1 J48       0.118000
     13 C15          1.9900    -3.4320    -1.4990 ca         1 J48       0.059800
     14 C16          2.7090    -4.3320    -0.6960 ca         1 J48      -0.175000
     15 C17          3.1600    -2.0860     2.2180 ca         1 J48      -0.032000
     16 C18          2.8330    -0.8060     2.5170 ca         1 J48      -0.180000
     17 C19          2.1690    -0.0220     1.5250 ca         1 J48       0.292400
     18 C22         -2.5610     2.0840    -1.1950 c          1 J48       0.651600
     19 C26          1.1390     2.2190     1.2490 c          1 J48       0.651600
     20 C29         -2.7550     4.1220    -2.3960 c3         1 J48       0.186600
     21 C30         -2.5430     5.5590    -1.9740 c3         1 J48      -0.059700
     22 C31          0.3200     4.4210     1.5920 c3         1 J48       0.186600
     23 C32         -1.3780     5.7970    -1.0590 c2         1 J48      -0.217200
     24 C33         -0.4160     4.9300    -0.7570 c2         1 J48      -0.217200
     25 C34         -0.5310    -4.8220    -1.4430 c3         1 J48       0.058300
     26 C36          1.3910    -3.9140    -2.7920 c3         1 J48       0.058300
     27 C37          0.6290     5.1760     0.2860 c3         1 J48      -0.059700
     28 N14          1.7380    -2.1880    -1.1610 nb         1 J48      -0.130500
     29 N20          1.8350    -0.4710     0.3500 nb         1 J48      -0.144500
     30 N21         -2.5920     1.6290     0.1000 ns         1 J48      -0.311400
     31 N25          1.9180     1.2860     1.8860 ns         1 J48      -0.311400
     32 N35         -0.0890    -4.0750    -2.6500 ny         1 J48      -0.824000
     33 N7          -1.9390    -0.5640    -0.2710 nb         1 J48      -0.144500
     34 O23         -2.9880     3.3440    -1.2130 os         1 J48      -0.465600
     35 O24         -2.2080     1.4630    -2.1630 o          1 J48      -0.465000
     36 O27          1.2310     3.3650     1.9210 os         1 J48      -0.465600
     37 O28          0.4740     2.0440     0.2630 o          1 J48      -0.465000
     38 H1          -1.9360     1.2030     2.5920 ha         1 J48       0.138000
     39 H2          -1.0280    -0.9130     3.4840 ha         1 J48       0.134500
     40 H3           3.6670    -4.5720     1.2020 ha         1 J48       0.136500
     41 H4           0.0170    -5.0980     1.2460 ha         1 J48       0.133000
     42 H5          -0.2890    -3.3330     2.9690 ha         1 J48       0.136500
     43 H6           2.9100    -5.3360    -1.0430 ha         1 J48       0.133000
     44 H7           3.6760    -2.7090     2.9380 ha         1 J48       0.134500
     45 H8           3.0730    -0.3770     3.4800 ha         1 J48       0.138000
     46 H9          -3.6210     4.0400    -3.0550 h1         1 J48       0.061450
     47 H10         -1.8870     3.7410    -2.9370 h1         1 J48       0.061450
     48 H11         -2.4370     6.1570    -2.8850 hc         1 J48       0.066450
     49 H12         -3.4500     5.9380    -1.4920 hc         1 J48       0.066450
     50 H13          0.4000     5.0960     2.4410 h1         1 J48       0.061450
     51 H14         -0.6990     4.0290     1.5770 h1         1 J48       0.061450
     52 H15         -1.3650     6.7730    -0.5800 ha         1 J48       0.179500
     53 H16         -0.3930     3.9470    -1.2130 ha         1 J48       0.179500
     54 H17          0.1940    -5.5970    -1.2060 hx         1 J48       0.104450
     55 H18         -1.4740    -5.3080    -1.6920 hx         1 J48       0.104450
     56 H19          1.5530    -3.2070    -3.6030 hx         1 J48       0.104450
     57 H20          1.7890    -4.8850    -3.0790 hx         1 J48       0.104450
     58 H21          0.6730     6.2430     0.5130 hc         1 J48       0.066450
     59 H22          1.6230     4.8990    -0.0730 hc         1 J48       0.066450
     60 H23         -2.7800     2.3270     0.8040 hn         1 J48       0.175500
     61 H24          2.3180     1.5790     2.7650 hn         1 J48       0.175500
     62 H25         -0.4620    -4.5120    -3.4930 hn         1 J48       0.529500
     63 H26         -0.5390    -3.1490    -2.5870 hn         1 J48       0.529500
@<TRIPOS>BOND
     1     1     2 ar  
     2     1    30 1   
     3     1    33 ar  
     4     2     3 ar  
     5     2    38 1   
     6     3     9 ar  
     7     3    39 1   
     8     4     5 ar  
     9     4    14 ar  
    10     4    40 1   
    11     5     6 ar  
    12     5    15 ar  
    13     6    28 ar  
    14     6    29 ar  
    15     7     8 ar  
    16     7    12 ar  
    17     8    10 ar  
    18     8    25 1   
    19     9    11 ar  
    20     9    12 ar  
    21    10    11 ar  
    22    10    41 1   
    23    11    42 1   
    24    12    33 ar  
    25    13    14 ar  
    26    13    26 1   
    27    13    28 ar  
    28    14    43 1   
    29    15    16 ar  
    30    15    44 1   
    31    16    17 ar  
    32    16    45 1   
    33    17    29 ar  
    34    17    31 1   
    35    18    30 1   
    36    18    34 1   
    37    18    35 2   
    38    19    31 1   
    39    19    36 1   
    40    19    37 2   
    41    20    21 1   
    42    20    34 1   
    43    20    46 1   
    44    20    47 1   
    45    21    23 1   
    46    21    48 1   
    47    21    49 1   
    48    22    27 1   
    49    22    36 1   
    50    22    50 1   
    51    22    51 1   
    52    23    24 2   
    53    23    52 1   
    54    24    27 1   
    55    24    53 1   
    56    25    32 1   
    57    25    54 1   
    58    25    55 1   
    59    26    32 1   
    60    26    56 1   
    61    26    57 1   
    62    27    58 1   
    63    27    59 1   
    64    30    60 1   
    65    31    61 1   
    66    32    62 1   
    67    32    63 1   
@<TRIPOS>SUBSTRUCTURE
     1 J48         1 TEMP              0 ****  ****    0 ROOT
