@<TRIPOS>MOLECULE
J48
   63    67     1     0     0
SMALL
No Charge or Current Charge


@<TRIPOS>ATOM
      1 C8          -2.1700     0.3450     0.7460 ca         1 J48       0.292400
      2 C9          -1.8720     0.0710     2.0880 ca         1 J48      -0.180000
      3 C10         -1.3930    -1.2040     2.4200 ca         1 J48      -0.032000
      4 C11          2.9150    -3.9300     1.0230 ca         1 J48      -0.014000
      5 C12          2.7180    -2.5520     1.2230 ca         1 J48      -0.150500
      6 C13          2.2490    -1.7300     0.1550 ca         1 J48       0.118000
      7 N1          -1.3730    -2.6910    -0.9480 nb         1 J48      -0.130500
      8 C6          -0.8880    -3.9200    -0.6790 ca         1 J48       0.059800
      9 C3          -1.2280    -2.1470     1.3880 ca         1 J48      -0.150500
     10 C5          -0.5670    -4.3390     0.6210 ca         1 J48      -0.175000
     11 C4          -0.7390    -3.4350     1.6780 ca         1 J48      -0.014000
     12 C2          -1.5460    -1.7950     0.0460 ca         1 J48       0.118000
     13 C15          2.1760    -3.6090    -1.2460 ca         1 J48       0.059800
     14 C16          2.6370    -4.4660    -0.2370 ca         1 J48      -0.175000
     15 C17          2.9960    -1.9930     2.4820 ca         1 J48      -0.032000
     16 C18          2.8050    -0.6200     2.6540 ca         1 J48      -0.180000
     17 C19          2.3260     0.1300     1.5730 ca         1 J48       0.292400
     18 C22         -2.9130     2.1350    -0.8880 c          1 J48       0.651600
     19 C26          1.3440     2.4070     1.0770 c          1 J48       0.651600
     20 C29         -3.1510     4.2440    -2.0130 c3         1 J48       0.186600
     21 C30         -2.7810     5.7120    -1.6990 c3         1 J48      -0.059700
     22 C31          0.6670     4.7340     1.2800 c3         1 J48       0.186600
     23 C32         -1.4200     5.9120    -1.0360 c2         1 J48      -0.217200
     24 C33         -0.4030     5.0320    -0.9980 c2         1 J48      -0.217200
     25 C34         -0.6370    -4.8100    -1.8880 c3         1 J48       0.058300
     26 C36          1.8190    -4.1720    -2.6130 c3         1 J48       0.058300
     27 C37          0.8630     5.2070    -0.1840 c3         1 J48      -0.059700
     28 N14          1.9950    -2.2830    -1.0550 nb         1 J48      -0.130500
     29 N20          2.0650    -0.4030     0.3600 nb         1 J48      -0.144500
     30 N21         -2.5960     1.6330     0.3540 ns         1 J48      -0.311400
     31 N25          2.1840     1.5250     1.7060 ns         1 J48      -0.311400
     32 N35          0.3060    -4.1140    -2.8870 ny         1 J48      -0.824000
     33 N7          -2.0090    -0.5600    -0.2380 nb         1 J48      -0.144500
     34 O23         -3.0370     3.4890    -0.7900 os         1 J48      -0.465600
     35 O24         -3.0320     1.4940    -1.9220 o          1 J48      -0.465000
     36 O27          1.5650     3.6520     1.6020 os         1 J48      -0.465600
     37 O28          0.5160     2.1250     0.2260 o          1 J48      -0.465000
     38 H1          -2.0000     0.8320     2.8530 ha         1 J48       0.138000
     39 H2          -1.1480    -1.4510     3.4520 ha         1 J48       0.134500
     40 H3           3.2710    -4.5710     1.8280 ha         1 J48       0.136500
     41 H4          -0.1680    -5.3330     0.8040 ha         1 J48       0.133000
     42 H5          -0.4850    -3.7230     2.6960 ha         1 J48       0.136500
     43 H6           2.7650    -5.5300    -0.4240 ha         1 J48       0.133000
     44 H7           3.3600    -2.6070     3.3040 ha         1 J48       0.134500
     45 H8           3.0220    -0.1440     3.6070 ha         1 J48       0.138000
     46 H9          -4.1700     4.1860    -2.4190 h1         1 J48       0.061450
     47 H10         -2.4580     3.8690    -2.7770 h1         1 J48       0.061450
     48 H11         -2.8290     6.2920    -2.6280 hc         1 J48       0.066450
     49 H12         -3.5640     6.1200    -1.0480 hc         1 J48       0.066450
     50 H13          0.8660     5.5840     1.9450 h1         1 J48       0.061450
     51 H14         -0.3780     4.4360     1.4470 h1         1 J48       0.061450
     52 H15         -1.3410     6.8530    -0.4860 ha         1 J48       0.179500
     53 H16         -0.4630     4.0720    -1.5150 ha         1 J48       0.179500
     54 H17         -0.1950    -5.7630    -1.5830 hx         1 J48       0.104450
     55 H18         -1.5900    -5.0220    -2.3830 hx         1 J48       0.104450
     56 H19          2.3470    -3.6130    -3.3920 hx         1 J48       0.104450
     57 H20          2.1430    -5.2150    -2.6760 hx         1 J48       0.104450
     58 H21          1.1450     6.2670    -0.1640 hc         1 J48       0.066450
     59 H22          1.7030     4.6810    -0.6540 hc         1 J48       0.066450
     60 H23         -2.5710     2.3250     1.0890 hn         1 J48       0.175500
     61 H24          2.7670     1.9400     2.4190 hn         1 J48       0.175500
     62 H25          0.1220    -4.4830    -3.8480 hn         1 J48       0.529500
     63 H26          0.0130    -3.1170    -2.9880 hn         1 J48       0.529500
@<TRIPOS>BOND
     1     1     2 ar  
     2     1    30 1   
     3     1    33 ar  
     4     2     3 ar  
     5     2    38 1   
     6     3     9 ar  
     7     3    39 1   
     8     4     5 ar  
     9     4    14 ar  
    10     4    40 1   
    11     5     6 ar  
    12     5    15 ar  
    13     6    28 ar  
    14     6    29 ar  
    15     7     8 ar  
    16     7    12 ar  
    17     8    10 ar  
    18     8    25 1   
    19     9    11 ar  
    20     9    12 ar  
    21    10    11 ar  
    22    10    41 1   
    23    11    42 1   
    24    12    33 ar  
    25    13    14 ar  
    26    13    26 1   
    27    13    28 ar  
    28    14    43 1   
    29    15    16 ar  
    30    15    44 1   
    31    16    17 ar  
    32    16    45 1   
    33    17    29 ar  
    34    17    31 1   
    35    18    30 1   
    36    18    34 1   
    37    18    35 2   
    38    19    31 1   
    39    19    36 1   
    40    19    37 2   
    41    20    21 1   
    42    20    34 1   
    43    20    46 1   
    44    20    47 1   
    45    21    23 1   
    46    21    48 1   
    47    21    49 1   
    48    22    27 1   
    49    22    36 1   
    50    22    50 1   
    51    22    51 1   
    52    23    24 2   
    53    23    52 1   
    54    24    27 1   
    55    24    53 1   
    56    25    32 1   
    57    25    54 1   
    58    25    55 1   
    59    26    32 1   
    60    26    56 1   
    61    26    57 1   
    62    27    58 1   
    63    27    59 1   
    64    30    60 1   
    65    31    61 1   
    66    32    62 1   
    67    32    63 1   
@<TRIPOS>SUBSTRUCTURE
     1 J48         1 TEMP              0 ****  ****    0 ROOT
