@<TRIPOS>MOLECULE
J49
   46    47     1     0     0
SMALL
abcg2


@<TRIPOS>ATOM
      1 C1         -59.1260    24.2130    23.3960 ca         1 J49       0.198900
      2 C3         -57.3840    24.0640    21.9860 ca         1 J49       0.379300
      3 C4         -56.7620    25.1320    22.6130 ca         1 J49      -0.248000
      4 C5         -57.4610    25.7180    23.6810 ca         1 J49       0.408900
      5 C8         -55.4410    26.5340    21.1730 c          1 J49       0.658100
      6 C10        -53.7770    27.8750    19.9430 ca         1 J49      -0.041000
      7 C11        -54.4900    28.1430    18.7730 ca         1 J49      -0.160000
      8 C12        -54.0380    29.1140    17.8970 ca         1 J49      -0.053500
      9 C13        -52.8650    29.8260    18.1310 ca         1 J49      -0.123600
     10 C14        -52.1520    29.5420    19.2940 ca         1 J49      -0.053500
     11 C15        -52.6010    28.5860    20.1860 ca         1 J49      -0.160000
     12 C16        -52.4570    30.8820    17.1510 c          1 J49       0.595700
     13 C19        -50.5560    32.2540    16.3520 c3         1 J49      -0.050300
     14 C23        -49.1510    31.7560    15.9220 c          1 J49       0.715000
     15 C26        -50.4230    33.6080    17.0640 c3         1 J49      -0.050400
     16 C27        -51.7440    34.2230    17.5000 c3         1 J49      -0.201400
     17 C28        -51.6290    35.5770    18.2290 c          1 J49       0.714000
     18 N2         -58.5660    23.5920    22.3700 nb         1 J49      -0.323000
     19 N6         -58.6540    25.2380    24.0710 nb         1 J49      -0.289000
     20 N9         -54.1550    26.9060    20.8710 ns         1 J49      -0.157000
     21 N17        -51.1750    31.2640    17.2050 ns         1 J49      -0.436900
     22 N21        -55.5180    25.6290    22.1950 ns         1 J49      -0.180000
     23 N22        -56.9800    26.7840    24.3330 nv         1 J49      -1.053900
     24 O7         -56.4260    26.9640    20.6050 o          1 J49      -0.598100
     25 O18        -53.2770    31.3460    16.3640 o          1 J49      -0.647100
     26 O20        -56.7770    23.4830    20.9620 oh         1 J49      -0.623300
     27 O24        -48.6660    30.8070    16.5720 o          1 J49      -0.744000
     28 O25        -48.6230    32.3780    14.9840 o          1 J49      -0.744000
     29 O29        -50.5690    35.8090    18.8460 o          1 J49      -0.764000
     30 O30        -52.6280    36.3240    18.1700 o          1 J49      -0.764000
     31 H1         -60.0910    23.8320    23.7150 h5         1 J49       0.038100
     32 H2         -55.3900    27.5990    18.5330 ha         1 J49       0.109000
     33 H3         -54.6110    29.3120    17.0010 ha         1 J49       0.135500
     34 H4         -51.2490    30.0840    19.5470 ha         1 J49       0.135500
     35 H5         -52.0380    28.4000    21.0930 ha         1 J49       0.109000
     36 H6         -51.1720    32.3790    15.4590 h1         1 J49       0.056700
     37 H7         -49.7700    33.4830    17.9330 hc         1 J49       0.045700
     38 H8         -49.9060    34.2910    16.3870 hc         1 J49       0.045700
     39 H9         -52.4090    34.3320    16.6390 hc         1 J49       0.016700
     40 H10        -52.2580    33.5360    18.1830 hc         1 J49       0.016700
     41 H12        -53.4270    26.6210    21.5100 hn         1 J49       0.134000
     42 H13        -50.5060    30.7000    17.7100 hn         1 J49       0.324500
     43 H14        -54.6780    25.2270    22.5860 hn         1 J49       0.146000
     44 H15        -57.4390    27.0850    25.1750 hn         1 J49       0.498500
     45 H16        -56.0340    27.0900    24.1850 hn         1 J49       0.498500
     46 H11        -57.3330    22.7620    20.6360 ho         1 J49       0.484000
@<TRIPOS>BOND
     1     1    18 ar  
     2     1    19 ar  
     3     1    31 1   
     4     2     3 ar  
     5     2    18 ar  
     6     2    26 1   
     7     3     4 ar  
     8     3    22 1   
     9     4    19 ar  
    10     4    23 1   
    11     5    20 1   
    12     5    22 1   
    13     5    24 2   
    14     6     7 ar  
    15     6    11 ar  
    16     6    20 1   
    17     7     8 ar  
    18     7    32 1   
    19     8     9 ar  
    20     8    33 1   
    21     9    10 ar  
    22     9    12 1   
    23    10    11 ar  
    24    10    34 1   
    25    11    35 1   
    26    12    21 1   
    27    12    25 2   
    28    13    14 1   
    29    13    15 1   
    30    13    21 1   
    31    13    36 1   
    32    14    27 1   
    33    14    28 1   
    34    15    16 1   
    35    15    37 1   
    36    15    38 1   
    37    16    17 1   
    38    16    39 1   
    39    16    40 1   
    40    17    29 1   
    41    17    30 1   
    42    20    41 1   
    43    21    42 1   
    44    22    43 1   
    45    23    44 1   
    46    23    45 1   
    47    26    46 1   
@<TRIPOS>SUBSTRUCTURE
     1 J49         1 TEMP              0 ****  ****    0 ROOT
