@<TRIPOS>MOLECULE
J49
   46    47     1     0     0
SMALL
No Charge or Current Charge


@<TRIPOS>ATOM
      1 C1         -58.8740    23.4250    23.6540 ca         1 J49       0.198900
      2 C3         -57.5660    24.0940    21.9040 ca         1 J49       0.379300
      3 C4         -56.9360    25.0510    22.7270 ca         1 J49      -0.248000
      4 C5         -57.3690    25.0880    24.0630 ca         1 J49       0.408900
      5 C8         -55.8600    26.7240    21.1230 c          1 J49       0.658100
      6 C10        -54.0900    28.1940    19.9690 ca         1 J49      -0.041000
      7 C11        -54.8210    28.6380    18.8490 ca         1 J49      -0.160000
      8 C12        -54.2380    29.5150    17.9180 ca         1 J49      -0.053500
      9 C13        -52.9110    29.9710    18.0790 ca         1 J49      -0.123600
     10 C14        -52.1810    29.5210    19.2050 ca         1 J49      -0.053500
     11 C15        -52.7680    28.6440    20.1330 ca         1 J49      -0.160000
     12 C16        -52.3190    30.9180    17.0510 c          1 J49       0.595700
     13 C19        -50.2420    32.2540    16.4010 c3         1 J49      -0.050300
     14 C23        -48.7850    31.7340    16.2080 c          1 J49       0.715000
     15 C26        -50.2480    33.6980    16.9700 c3         1 J49      -0.050400
     16 C27        -51.6490    34.3560    17.0630 c3         1 J49      -0.201400
     17 C28        -51.5200    35.8170    17.5290 c          1 J49       0.714000
     18 N2         -58.5310    23.2820    22.3590 nb         1 J49      -0.323000
     19 N6         -58.3340    24.2900    24.5340 nb         1 J49      -0.289000
     20 N9         -54.6100    27.3060    20.9510 ns         1 J49      -0.157000
     21 N17        -51.0090    31.3110    17.2540 ns         1 J49      -0.436900
     22 N21        -55.8990    25.9150    22.2520 ns         1 J49      -0.180000
     23 N22        -56.8520    25.9520    24.9760 nv         1 J49      -1.053900
     24 O7         -56.8300    26.9160    20.3970 o          1 J49      -0.598100
     25 O18        -52.9630    31.3110    16.0860 o          1 J49      -0.647100
     26 O20        -57.1790    23.8930    20.6200 oh         1 J49      -0.623300
     27 O24        -48.1700    31.3400    17.1910 o          1 J49      -0.744000
     28 O25        -48.3480    31.6460    15.0690 o          1 J49      -0.744000
     29 O29        -51.5290    36.0450    18.7290 o          1 J49      -0.764000
     30 O30        -51.3630    36.6830    16.6810 o          1 J49      -0.764000
     31 H1         -59.6600    22.7710    24.0290 h5         1 J49       0.038100
     32 H2         -55.8420    28.3140    18.6750 ha         1 J49       0.109000
     33 H3         -54.8270    29.8410    17.0630 ha         1 J49       0.135500
     34 H4         -51.1570    29.8400    19.3810 ha         1 J49       0.135500
     35 H5         -52.1860    28.3120    20.9900 ha         1 J49       0.109000
     36 H6         -50.7030    32.2760    15.4050 h1         1 J49       0.056700
     37 H7         -49.7820    33.6970    17.9640 hc         1 J49       0.045700
     38 H8         -49.6110    34.3220    16.3300 hc         1 J49       0.045700
     39 H9         -52.0690    34.3130    16.0510 hc         1 J49       0.016700
     40 H10        -52.2130    33.7720    17.8010 hc         1 J49       0.016700
     41 H12        -53.9340    27.0460    21.6580 hn         1 J49       0.134000
     42 H13        -50.5320    30.9130    18.0520 hn         1 J49       0.324500
     43 H14        -55.0450    25.8970    22.7950 hn         1 J49       0.146000
     44 H15        -57.0740    25.8120    25.9590 hn         1 J49       0.498500
     45 H16        -56.0030    26.4660    24.7610 hn         1 J49       0.498500
     46 H11        -57.7540    23.1800    20.2720 ho         1 J49       0.484000
@<TRIPOS>BOND
     1     1    18 ar  
     2     1    19 ar  
     3     1    31 1   
     4     2     3 ar  
     5     2    18 ar  
     6     2    26 1   
     7     3     4 ar  
     8     3    22 1   
     9     4    19 ar  
    10     4    23 1   
    11     5    20 1   
    12     5    22 1   
    13     5    24 2   
    14     6     7 ar  
    15     6    11 ar  
    16     6    20 1   
    17     7     8 ar  
    18     7    32 1   
    19     8     9 ar  
    20     8    33 1   
    21     9    10 ar  
    22     9    12 1   
    23    10    11 ar  
    24    10    34 1   
    25    11    35 1   
    26    12    21 1   
    27    12    25 2   
    28    13    14 1   
    29    13    15 1   
    30    13    21 1   
    31    13    36 1   
    32    14    27 1   
    33    14    28 1   
    34    15    16 1   
    35    15    37 1   
    36    15    38 1   
    37    16    17 1   
    38    16    39 1   
    39    16    40 1   
    40    17    29 1   
    41    17    30 1   
    42    20    41 1   
    43    21    42 1   
    44    22    43 1   
    45    23    44 1   
    46    23    45 1   
    47    26    46 1   
@<TRIPOS>SUBSTRUCTURE
     1 J49         1 TEMP              0 ****  ****    0 ROOT
