@<TRIPOS>MOLECULE
J4A
   54    58     1     0     0
SMALL
No Charge or Current Charge


@<TRIPOS>ATOM
      1 C10         -0.9080     6.3360   -51.4310 ca         1 J4A       0.145100
      2 C17         -3.0160     5.2320   -43.4010 cc         1 J4A       0.110000
      3 C20         -0.5860     2.9350   -41.4540 ca         1 J4A      -0.086500
      4 C21         -0.2670     2.4500   -40.1740 ca         1 J4A      -0.117000
      5 C22         -0.9190     2.9630   -39.0430 ca         1 J4A      -0.103000
      6 C24         -2.2010     4.4570   -40.4760 ca         1 J4A      -0.086500
      7 C26         -4.6710     6.9610   -42.5440 c6         1 J4A       0.203300
      8 C28         -7.0700     6.0660   -42.4520 c6         1 J4A      -0.075400
      9 C01         -3.3010     6.4180   -46.8410 cc         1 J4A       0.199800
     10 C03         -2.7030     5.4880   -44.7010 cd         1 J4A       0.224000
     11 C05         -1.1110     5.1180   -46.4070 c          1 J4A       0.565000
     12 C06         -2.0490     5.9330   -47.2810 cd         1 J4A      -0.247400
     13 C07         -1.6630     6.0730   -48.7130 ca         1 J4A      -0.062800
     14 C08         -2.5900     5.8230   -49.7500 ca         1 J4A      -0.051500
     15 C09         -2.2140     5.9560   -51.0980 ca         1 J4A      -0.179000
     16 C11          0.0270     6.5800   -50.4160 ca         1 J4A      -0.179000
     17 C12         -0.3470     6.4450   -49.0670 ca         1 J4A      -0.051500
     18 C16         -1.8760     4.4420   -42.9910 cc         1 J4A       0.318500
     19 C19         -1.5820     3.9260   -41.6330 ca         1 J4A      -0.124500
     20 C23         -1.8800     3.9720   -39.1960 ca         1 J4A      -0.117000
     21 C27         -6.1200     7.1200   -43.0740 c6         1 J4A      -0.079900
     22 C29         -6.5090     4.6400   -42.6690 c6         1 J4A      -0.079900
     23 C30         -5.0700     4.5160   -42.1140 c6         1 J4A       0.203300
     24 N02         -3.5990     6.1520   -45.5050 na         1 J4A      -0.780000
     25 N04         -1.5340     4.9570   -45.0850 n          1 J4A       0.137000
     26 N15         -0.9870     4.2720   -43.9800 nd         1 J4A      -0.470800
     27 N18         -4.1910     5.5600   -42.7070 nh         1 J4A      -0.788400
     28 O13         -0.5540     6.4620   -52.7410 oh         1 J4A      -0.533100
     29 O14         -0.0680     4.6110   -46.8110 o          1 J4A      -0.466000
     30 H201        -0.0630     2.5160   -42.3110 ha         1 J4A       0.121000
     31 H211         0.4900     1.6770   -40.0590 ha         1 J4A       0.113000
     32 H221        -0.6700     2.5910   -38.0520 ha         1 J4A       0.112000
     33 H241        -2.9110     5.2730   -40.5470 ha         1 J4A       0.121000
     34 H261        -4.6470     7.2320   -41.4790 h1         1 J4A       0.036200
     35 H262        -4.0080     7.6630   -43.0700 h1         1 J4A       0.036200
     36 H281        -7.1850     6.2600   -41.3770 hc         1 J4A       0.040700
     37 H282        -8.0700     6.1510   -42.8980 hc         1 J4A       0.040700
     38 H081        -3.5970     5.4870   -49.5220 ha         1 J4A       0.116000
     39 H091        -2.9370     5.7540   -51.8850 ha         1 J4A       0.121500
     40 H111         1.0440     6.8770   -50.6620 ha         1 J4A       0.121500
     41 H121         0.3890     6.6600   -48.2960 ha         1 J4A       0.116000
     42 H231        -2.3700     4.3920   -38.3200 ha         1 J4A       0.113000
     43 H251        -4.8130     7.9550   -46.9490 hc         1 J4A       0.065033
     44 H252        -3.7850     7.8660   -48.3760 hc         1 J4A       0.065033
     45 H253        -5.0410     6.6350   -48.1020 hc         1 J4A       0.065033
     46 H272        -6.4850     8.1310   -42.8500 hc         1 J4A       0.043450
     47 H271        -6.1320     7.0220   -44.1670 hc         1 J4A       0.043450
     48 H292        -6.5100     4.3990   -43.7410 hc         1 J4A       0.043450
     49 H291        -7.1590     3.9020   -42.1810 hc         1 J4A       0.043450
     50 H301        -4.6790     3.5120   -42.3340 h1         1 J4A       0.036200
     51 H302        -5.0980     4.6250   -41.0200 h1         1 J4A       0.036200
     52 H021        -4.4810     6.4390   -45.0880 hn         1 J4A       0.533000
     53 H131         0.3890     6.7300   -52.7820 ho         1 J4A       0.466000
     54 C25         -4.2860     7.2600   -47.6130 c3         1 J4A      -0.072900
@<TRIPOS>BOND
     1     1    15 ar  
     2     1    16 ar  
     3     1    28 1   
     4     2    10 2   
     5     2    18 1   
     6     2    27 1   
     7     3     4 ar  
     8     3    19 ar  
     9     3    30 1   
    10     4     5 ar  
    11     4    31 1   
    12     5    20 ar  
    13     5    32 1   
    14     6    19 ar  
    15     6    20 ar  
    16     6    33 1   
    17     7    21 1   
    18     7    27 1   
    19     7    34 1   
    20     7    35 1   
    21     8    21 1   
    22     8    22 1   
    23     8    36 1   
    24     8    37 1   
    25     9    12 2   
    26     9    24 1   
    27     9    54 1   
    28    10    24 1   
    29    10    25 1   
    30    11    12 1   
    31    11    25 1   
    32    11    29 2   
    33    12    13 1   
    34    13    14 ar  
    35    13    17 ar  
    36    14    15 ar  
    37    14    38 1   
    38    15    39 1   
    39    16    17 ar  
    40    16    40 1   
    41    17    41 1   
    42    18    19 1   
    43    18    26 2   
    44    20    42 1   
    45    21    46 1   
    46    21    47 1   
    47    22    23 1   
    48    22    48 1   
    49    22    49 1   
    50    23    27 1   
    51    23    50 1   
    52    23    51 1   
    53    24    52 1   
    54    25    26 1   
    55    28    53 1   
    56    43    54 1   
    57    44    54 1   
    58    45    54 1   
@<TRIPOS>SUBSTRUCTURE
     1 J4A         1 TEMP              0 ****  ****    0 ROOT
