@<TRIPOS>MOLECULE
J4A
   54    58     1     0     0
SMALL
abcg2


@<TRIPOS>ATOM
      1 C10         -0.4540     6.2550   -51.4160 ca         1 J4A       0.145100
      2 C17         -3.3040     5.3020   -43.5860 cc         1 J4A       0.110000
      3 C20         -1.0540     2.9060   -41.7710 ca         1 J4A      -0.086500
      4 C21         -0.7280     2.3510   -40.5430 ca         1 J4A      -0.117000
      5 C22         -1.1180     2.9790   -39.3670 ca         1 J4A      -0.103000
      6 C24         -2.1580     4.7230   -40.6570 ca         1 J4A      -0.086500
      7 C26         -4.6980     6.8580   -42.3360 c6         1 J4A       0.203300
      8 C28         -6.9030     6.0750   -41.4370 c6         1 J4A      -0.075400
      9 C01         -3.2860     6.3220   -47.1360 cc         1 J4A       0.199800
     10 C03         -3.0430     5.5880   -44.9080 cd         1 J4A       0.224000
     11 C05         -1.1690     5.2850   -46.4420 c          1 J4A       0.565000
     12 C06         -2.0170     5.9020   -47.4400 cd         1 J4A      -0.247400
     13 C07         -1.4720     6.0220   -48.8090 ca         1 J4A      -0.062800
     14 C08         -2.0420     5.3230   -49.8710 ca         1 J4A      -0.051500
     15 C09         -1.5500     5.4360   -51.1610 ca         1 J4A      -0.179000
     16 C11          0.1360     6.9530   -50.3640 ca         1 J4A      -0.179000
     17 C12         -0.3720     6.8330   -49.0800 ca         1 J4A      -0.051500
     18 C16         -2.1000     4.6780   -43.1520 cc         1 J4A       0.318500
     19 C19         -1.7770     4.0980   -41.8430 ca         1 J4A      -0.124500
     20 C23         -1.8310     4.1680   -39.4280 ca         1 J4A      -0.117000
     21 C27         -6.1740     7.1910   -42.1770 c6         1 J4A      -0.079900
     22 C29         -6.6710     4.7380   -42.1320 c6         1 J4A      -0.079900
     23 C30         -5.1820     4.4630   -42.2840 c6         1 J4A       0.203300
     24 N02         -3.7790     6.1660   -45.8850 na         1 J4A      -0.780000
     25 N04         -1.7860     5.1680   -45.1880 n          1 J4A       0.137000
     26 N15         -1.2060     4.5970   -44.1240 nd         1 J4A      -0.470800
     27 N18         -4.5370     5.5630   -42.9810 nh         1 J4A      -0.788400
     28 O13         -0.0090     6.3350   -52.6840 oh         1 J4A      -0.533100
     29 O14         -0.0380     4.8770   -46.6060 o          1 J4A      -0.466000
     30 H201        -0.7550     2.4060   -42.6840 ha         1 J4A       0.121000
     31 H211        -0.1720     1.4230   -40.5050 ha         1 J4A       0.113000
     32 H221        -0.8660     2.5440   -38.4080 ha         1 J4A       0.112000
     33 H241        -2.6960     5.6610   -40.6880 ha         1 J4A       0.121000
     34 H261        -4.2190     6.8840   -41.3440 h1         1 J4A       0.036200
     35 H262        -4.2030     7.6150   -42.9460 h1         1 J4A       0.036200
     36 H281        -6.5310     6.0180   -40.4090 hc         1 J4A       0.040700
     37 H282        -7.9710     6.2930   -41.3720 hc         1 J4A       0.040700
     38 H081        -2.8880     4.6700   -49.6890 ha         1 J4A       0.116000
     39 H091        -2.0100     4.8830   -51.9710 ha         1 J4A       0.121500
     40 H111         0.9910     7.5960   -50.5460 ha         1 J4A       0.121500
     41 H121         0.0930     7.3950   -48.2790 ha         1 J4A       0.116000
     42 H231        -2.1310     4.6700   -38.5180 ha         1 J4A       0.113000
     43 H251        -4.8720     7.6720   -47.6220 hc         1 J4A       0.065033
     44 H252        -3.6700     7.4700   -48.9030 hc         1 J4A       0.065033
     45 H253        -4.8470     6.2000   -48.5880 hc         1 J4A       0.065033
     46 H272        -6.2730     8.1380   -41.6430 hc         1 J4A       0.043450
     47 H271        -6.6190     7.3320   -43.1670 hc         1 J4A       0.043450
     48 H292        -7.1380     4.7500   -43.1210 hc         1 J4A       0.043450
     49 H291        -7.1310     3.9240   -41.5670 hc         1 J4A       0.043450
     50 H301        -5.0220     3.5490   -42.8590 h1         1 J4A       0.036200
     51 H302        -4.7470     4.2940   -41.2870 h1         1 J4A       0.036200
     52 H021        -4.7180     6.4610   -45.6570 hn         1 J4A       0.533000
     53 H131         0.7610     6.9120   -52.7370 ho         1 J4A       0.466000
     54 C25         -4.2160     6.9560   -48.1170 c3         1 J4A      -0.072900
@<TRIPOS>BOND
     1     1    15 ar  
     2     1    16 ar  
     3     1    28 1   
     4     2    10 2   
     5     2    18 1   
     6     2    27 1   
     7     3     4 ar  
     8     3    19 ar  
     9     3    30 1   
    10     4     5 ar  
    11     4    31 1   
    12     5    20 ar  
    13     5    32 1   
    14     6    19 ar  
    15     6    20 ar  
    16     6    33 1   
    17     7    21 1   
    18     7    27 1   
    19     7    34 1   
    20     7    35 1   
    21     8    21 1   
    22     8    22 1   
    23     8    36 1   
    24     8    37 1   
    25     9    12 2   
    26     9    24 1   
    27     9    54 1   
    28    10    24 1   
    29    10    25 1   
    30    11    12 1   
    31    11    25 1   
    32    11    29 2   
    33    12    13 1   
    34    13    14 ar  
    35    13    17 ar  
    36    14    15 ar  
    37    14    38 1   
    38    15    39 1   
    39    16    17 ar  
    40    16    40 1   
    41    17    41 1   
    42    18    19 1   
    43    18    26 2   
    44    20    42 1   
    45    21    46 1   
    46    21    47 1   
    47    22    23 1   
    48    22    48 1   
    49    22    49 1   
    50    23    27 1   
    51    23    50 1   
    52    23    51 1   
    53    24    52 1   
    54    25    26 1   
    55    28    53 1   
    56    43    54 1   
    57    44    54 1   
    58    45    54 1   
@<TRIPOS>SUBSTRUCTURE
     1 J4A         1 TEMP              0 ****  ****    0 ROOT
