@<TRIPOS>MOLECULE
J4B
   44    45     1     0     0
SMALL
abcg2


@<TRIPOS>ATOM
      1 C3           1.1130     0.2190     0.3760 c          1 J4B       0.626700
      2 O5          -0.9780     2.5610    -0.1750 o          1 J4B      -0.582100
      3 C7           2.5680     0.3910     0.1050 ca         1 J4B      -0.194600
      4 C8           3.4520    -0.6970     0.0560 ca         1 J4B       0.025700
      5 C9           4.7930    -0.4700    -0.2790 ca         1 J4B      -0.175300
      6 C10          5.2160     0.8360    -0.5690 ca         1 J4B       0.166100
      7 C11          4.3340     1.9080    -0.5130 ca         1 J4B      -0.155000
      8 C12          3.0180     1.6800    -0.1680 ca         1 J4B      -0.050000
      9 C14          2.9730    -2.0950     0.3610 c3         1 J4B      -0.039100
     10 C15          5.8230    -1.5660    -0.3400 c3         1 J4B      -0.055800
     11 C16          2.6910    -2.9040    -0.9040 c3         1 J4B      -0.086100
     12 C19         -3.6310    -0.6190     1.3080 ca         1 J4B      -0.151500
     13 C20         -3.9870    -1.8590     0.8110 ca         1 J4B       0.205000
     14 C21         -4.1150    -2.1130    -0.5390 ca         1 J4B      -0.189000
     15 C22         -3.8660    -1.0560    -1.3960 ca         1 J4B       0.205000
     16 N1          -0.6830     1.1630     1.5810 ns         1 J4B      -0.350500
     17 N2           0.6520     1.0220     1.3770 ns         1 J4B      -0.381500
     18 C4          -1.4330     1.8790     0.7210 c          1 J4B       0.567100
     19 O6           0.3820    -0.5350    -0.2320 o          1 J4B      -0.564100
     20 O13          6.4870     1.1190    -0.9070 oh         1 J4B      -0.535100
     21 C17         -2.9470     1.7700     0.9250 c3         1 J4B       0.148600
     22 C18         -3.3830     0.4120     0.4130 ca         1 J4B      -0.063300
     23 C23         -3.5060     0.2000    -0.9560 ca         1 J4B      -0.151500
     24 O24         -3.5820     2.8180     0.2660 oh         1 J4B      -0.638000
     25 F26         -3.9860    -1.2690    -2.7120 f          1 J4B      -0.171000
     26 H1           4.6810     2.9070    -0.7440 ha         1 J4B       0.136000
     27 H2           2.3280     2.5140    -0.1440 ha         1 J4B       0.128000
     28 H3           3.7150    -2.6150     0.9690 hc         1 J4B       0.049200
     29 H4           2.0730    -2.0640     0.9740 hc         1 J4B       0.049200
     30 H5           6.2250    -1.6880    -1.3490 hc         1 J4B       0.045367
     31 H6           6.6650    -1.3650     0.3290 hc         1 J4B       0.045367
     32 H7           5.4280    -2.5340    -0.0500 hc         1 J4B       0.045367
     33 H8           3.5760    -2.9820    -1.5360 hc         1 J4B       0.041033
     34 H9           2.3730    -3.9160    -0.6510 hc         1 J4B       0.041033
     35 H10          1.9000    -2.4380    -1.4910 hc         1 J4B       0.041033
     36 H11         -3.5660    -0.4650     2.3780 ha         1 J4B       0.137500
     37 H12         -4.4020    -3.0880    -0.9090 ha         1 J4B       0.151000
     38 H13         -1.1110     0.5530     2.2630 hn         1 J4B       0.342500
     39 H14          1.2620     1.6600     1.8650 hn         1 J4B       0.343500
     40 H15          7.0240     0.3210    -0.9700 ho         1 J4B       0.472000
     41 H16         -3.1710     1.8330     1.9960 h1         1 J4B       0.079700
     42 H17         -3.3270     0.9900    -1.6740 ha         1 J4B       0.137500
     43 H18         -2.9590     3.1870    -0.3770 ho         1 J4B       0.476000
     44 F25         -4.2310    -2.8530     1.6730 f          1 J4B      -0.171000
@<TRIPOS>BOND
     1     1     3 1   
     2     1    17 1   
     3     1    19 2   
     4     2    18 2   
     5     3     4 ar  
     6     3     8 ar  
     7     4     5 ar  
     8     4     9 1   
     9     5     6 ar  
    10     5    10 1   
    11     6     7 ar  
    12     6    20 1   
    13     7     8 ar  
    14     7    26 1   
    15     8    27 1   
    16     9    11 1   
    17     9    28 1   
    18     9    29 1   
    19    10    30 1   
    20    10    31 1   
    21    10    32 1   
    22    11    33 1   
    23    11    34 1   
    24    11    35 1   
    25    12    13 ar  
    26    12    22 ar  
    27    12    36 1   
    28    13    14 ar  
    29    13    44 1   
    30    14    15 ar  
    31    14    37 1   
    32    15    23 ar  
    33    15    25 1   
    34    16    17 1   
    35    16    18 1   
    36    16    38 1   
    37    17    39 1   
    38    18    21 1   
    39    20    40 1   
    40    21    22 1   
    41    21    24 1   
    42    21    41 1   
    43    22    23 ar  
    44    23    42 1   
    45    24    43 1   
@<TRIPOS>SUBSTRUCTURE
     1 J4B         1 TEMP              0 ****  ****    0 ROOT
