@<TRIPOS>MOLECULE
J4B
   44    45     1     0     0
SMALL
No Charge or Current Charge


@<TRIPOS>ATOM
      1 C3           1.2730     0.2780     0.3190 c          1 J4B       0.626700
      2 O5          -1.1170     2.4820    -0.5320 o          1 J4B      -0.582100
      3 C7           2.7710     0.4260     0.1190 ca         1 J4B      -0.194600
      4 C8           3.6440    -0.6850    -0.1000 ca         1 J4B       0.025700
      5 C9           5.0430    -0.4550    -0.2820 ca         1 J4B      -0.175300
      6 C10          5.5410     0.8680    -0.2290 ca         1 J4B       0.166100
      7 C11          4.6790     1.9440    -0.0220 ca         1 J4B      -0.155000
      8 C12          3.3100     1.7310     0.1490 ca         1 J4B      -0.050000
      9 C14          3.1040    -2.1280    -0.0730 c3         1 J4B      -0.039100
     10 C15          6.0250    -1.6230    -0.5000 c3         1 J4B      -0.055800
     11 C16          2.7190    -2.6630    -1.4710 c3         1 J4B      -0.086100
     12 C19         -4.3150    -0.3320     1.4670 ca         1 J4B      -0.151500
     13 C20         -4.7760    -1.6350     1.2150 ca         1 J4B       0.205000
     14 C21         -4.5150    -2.2570    -0.0120 ca         1 J4B      -0.189000
     15 C22         -3.7900    -1.5680    -0.9930 ca         1 J4B       0.205000
     16 N1          -0.7100     1.3200     1.4010 ns         1 J4B      -0.350500
     17 N2           0.7020     1.1720     1.2130 ns         1 J4B      -0.381500
     18 C4          -1.5510     1.9100     0.4650 c          1 J4B       0.567100
     19 O6           0.5830    -0.5240    -0.2960 o          1 J4B      -0.564100
     20 O13          6.8730     1.1330    -0.3620 oh         1 J4B      -0.535100
     21 C17         -3.0790     1.7850     0.7640 c3         1 J4B       0.148600
     22 C18         -3.5820     0.3670     0.4850 ca         1 J4B      -0.063300
     23 C23         -3.3260    -0.2650    -0.7520 ca         1 J4B      -0.151500
     24 O24         -3.8710     2.7390     0.0150 oh         1 J4B      -0.638000
     25 F26         -3.5360    -2.1620    -2.1790 f          1 J4B      -0.171000
     26 H1           5.0770     2.9560     0.0080 ha         1 J4B       0.136000
     27 H2           2.6680     2.6000     0.2840 ha         1 J4B       0.128000
     28 H3           3.8360    -2.8100     0.3750 hc         1 J4B       0.049200
     29 H4           2.2400    -2.2120     0.5940 hc         1 J4B       0.049200
     30 H5           6.9290    -1.3240    -1.0430 hc         1 J4B       0.045367
     31 H6           6.3400    -2.0510     0.4590 hc         1 J4B       0.045367
     32 H7           5.5920    -2.4320    -1.0960 hc         1 J4B       0.045367
     33 H8           3.5830    -2.6750    -2.1450 hc         1 J4B       0.041033
     34 H9           2.3340    -3.6870    -1.3940 hc         1 J4B       0.041033
     35 H10          1.9460    -2.0420    -1.9340 hc         1 J4B       0.041033
     36 H11         -4.5330     0.1310     2.4260 ha         1 J4B       0.137500
     37 H12         -4.8720    -3.2650    -0.2020 ha         1 J4B       0.151000
     38 H13         -1.1290     0.8110     2.1760 hn         1 J4B       0.342500
     39 H14          1.3070     1.8420     1.6790 hn         1 J4B       0.343500
     40 H15          7.3470     0.2800    -0.4380 ho         1 J4B       0.472000
     41 H16         -3.1930     1.9860     1.8380 h1         1 J4B       0.079700
     42 H17         -2.7660     0.2480    -1.5310 ha         1 J4B       0.137500
     43 H18         -3.4390     2.8300    -0.8660 ho         1 J4B       0.476000
     44 F25         -5.4770    -2.2930     2.1640 f          1 J4B      -0.171000
@<TRIPOS>BOND
     1     1     3 1   
     2     1    17 1   
     3     1    19 2   
     4     2    18 2   
     5     3     4 ar  
     6     3     8 ar  
     7     4     5 ar  
     8     4     9 1   
     9     5     6 ar  
    10     5    10 1   
    11     6     7 ar  
    12     6    20 1   
    13     7     8 ar  
    14     7    26 1   
    15     8    27 1   
    16     9    11 1   
    17     9    28 1   
    18     9    29 1   
    19    10    30 1   
    20    10    31 1   
    21    10    32 1   
    22    11    33 1   
    23    11    34 1   
    24    11    35 1   
    25    12    13 ar  
    26    12    22 ar  
    27    12    36 1   
    28    13    14 ar  
    29    13    44 1   
    30    14    15 ar  
    31    14    37 1   
    32    15    23 ar  
    33    15    25 1   
    34    16    17 1   
    35    16    18 1   
    36    16    38 1   
    37    17    39 1   
    38    18    21 1   
    39    20    40 1   
    40    21    22 1   
    41    21    24 1   
    42    21    41 1   
    43    22    23 ar  
    44    23    42 1   
    45    24    43 1   
@<TRIPOS>SUBSTRUCTURE
     1 J4B         1 TEMP              0 ****  ****    0 ROOT
