@<TRIPOS>MOLECULE
J4C
   63    66     1     0     0
SMALL
abcg2


@<TRIPOS>ATOM
      1 C2          12.5670   -55.6330    -3.3550 c          1 J4C       0.617000
      2 C5          12.2920   -57.6070    -1.4390 cc         1 J4C      -0.389600
      3 C6          13.6180   -57.2080    -1.7230 c          1 J4C       0.642600
      4 N            3.2890   -59.4410    -1.1770 ns         1 J4C      -0.428900
      5 CA           1.9210   -59.7910    -1.4860 c3         1 J4C      -0.045300
      6 C            1.7810   -61.2280    -2.0590 c          1 J4C       0.728000
      7 OXT          0.6070   -61.6470    -2.1220 o          1 J4C      -0.736500
      8 CB           1.3290   -58.7580    -2.4510 c3         1 J4C      -0.048400
      9 CG           1.9110   -58.7840    -3.8590 c3         1 J4C      -0.202400
     10 CD           1.3620   -57.7080    -4.8230 c          1 J4C       0.714000
     11 OE1          1.6030   -57.8920    -6.0340 o          1 J4C      -0.764500
     12 OE2          0.7480   -56.7420    -4.3270 o          1 J4C      -0.764500
     13 O            2.8160   -61.8150    -2.4190 o          1 J4C      -0.736500
     14 C4          11.1990   -57.0470    -2.0460 cd         1 J4C       0.484900
     15 C8          10.4300   -58.4280    -0.6590 cc         1 J4C       0.752400
     16 CAP          8.2290   -59.3340    -0.0230 ca         1 J4C       0.273000
     17 CAQ          7.5040   -59.7290     1.1040 ca         1 J4C      -0.158000
     18 CAR          6.1450   -59.9520     1.0210 ca         1 J4C      -0.053500
     19 CAS          5.4570   -59.7710    -0.1780 ca         1 J4C      -0.115600
     20 CAT          6.1920   -59.3940    -1.3000 ca         1 J4C      -0.053500
     21 CAU          7.5580   -59.1770    -1.2360 ca         1 J4C      -0.158000
     22 CAV         15.2600   -54.3400    -2.5430 ca         1 J4C      -0.079300
     23 CAW         15.6690   -53.2960    -3.3620 ca         1 J4C      -0.078000
     24 CAX         15.9840   -52.0570    -2.8300 ca         1 J4C      -0.103000
     25 CAY         15.8800   -51.8420    -1.4650 ca         1 J4C       0.118000
     26 CAZ         15.4640   -52.8790    -0.6370 ca         1 J4C       0.115000
     27 CBA         15.1620   -54.1200    -1.1730 ca         1 J4C      -0.079000
     28 CBD          3.9890   -60.0480    -0.2100 c          1 J4C       0.601700
     29 N1          13.6580   -56.2130    -2.7180 n          1 J4C      -0.379400
     30 N3          11.3200   -56.0810    -3.0010 n          1 J4C      -0.352300
     31 N7          11.7670   -58.5250    -0.5390 na         1 J4C      -0.175500
     32 N9          10.0480   -57.5440    -1.5720 nd         1 J4C      -0.738000
     33 NAO          9.6030   -59.1700     0.1190 nu         1 J4C      -0.937900
     34 O2          12.7130   -54.7650    -4.1930 o          1 J4C      -0.563000
     35 O6          14.6410   -57.6260    -1.2030 o          1 J4C      -0.573000
     36 OBE          3.4720   -60.7680     0.6380 o          1 J4C      -0.640100
     37 CL1         16.2670   -50.2950    -0.8120 cl         1 J4C      -0.189000
     38 CL2         15.3250   -52.6410     1.0640 cl         1 J4C      -0.182000
     39 H1           3.7750   -58.8340    -1.8170 hn         1 J4C       0.301500
     40 H2           1.3400   -59.7430    -0.5600 h1         1 J4C       0.040700
     41 H4           1.4510   -57.7620    -2.0180 hc         1 J4C       0.034700
     42 H5           0.2540   -58.9360    -2.5010 hc         1 J4C       0.034700
     43 H6           1.7480   -59.7640    -4.3140 hc         1 J4C       0.025700
     44 H7           3.0010   -58.6620    -3.8340 hc         1 J4C       0.025700
     45 H9          15.7110   -56.4130    -2.7870 h1         1 J4C       0.077200
     46 H10         15.0140   -55.6650    -4.2080 h1         1 J4C       0.077200
     47 H11          9.2680   -55.9700    -3.2570 h1         1 J4C       0.064367
     48 H12         10.1050   -54.4260    -3.4530 h1         1 J4C       0.064367
     49 H13         10.1990   -55.6560    -4.7260 h1         1 J4C       0.064367
     50 H14         12.0610   -60.4160     0.2940 h1         1 J4C       0.059033
     51 H15         13.5240   -59.4680     0.0300 h1         1 J4C       0.059033
     52 H16         12.4530   -59.0610     1.3740 h1         1 J4C       0.059033
     53 H17          8.0120   -59.8610     2.0520 ha         1 J4C       0.109000
     54 H18          5.6070   -60.2610     1.9070 ha         1 J4C       0.138500
     55 H19          5.7180   -59.2920    -2.2680 ha         1 J4C       0.138500
     56 H20          8.0920   -58.9010    -2.1320 ha         1 J4C       0.109000
     57 H21         15.7460   -53.4460    -4.4320 ha         1 J4C       0.125000
     58 H22         16.3020   -51.2500    -3.4770 ha         1 J4C       0.127000
     59 H23         14.8570   -54.9150    -0.5050 ha         1 J4C       0.143000
     60 H24          9.9970   -59.5400     0.9710 hn         1 J4C       0.493000
     61 CAA         14.9620   -55.6990    -3.1220 c3         1 J4C       0.145300
     62 CAH         10.1600   -55.4940    -3.6510 c3         1 J4C       0.097300
     63 CAN         12.4880   -59.4160     0.3450 c3         1 J4C       0.059900
@<TRIPOS>BOND
     1     1    29 1   
     2     1    30 1   
     3     1    34 2   
     4     2     3 1   
     5     2    14 2   
     6     2    31 1   
     7     3    29 1   
     8     3    35 2   
     9     4     5 1   
    10     4    28 1   
    11     4    39 1   
    12     5     6 1   
    13     5     8 1   
    14     5    40 1   
    15     6     7 1   
    16     6    13 1   
    17     8     9 1   
    18     8    41 1   
    19     8    42 1   
    20     9    10 1   
    21     9    43 1   
    22     9    44 1   
    23    10    11 1   
    24    10    12 1   
    25    14    30 1   
    26    14    32 1   
    27    15    31 1   
    28    15    32 2   
    29    15    33 1   
    30    16    17 ar  
    31    16    21 ar  
    32    16    33 1   
    33    17    18 ar  
    34    17    53 1   
    35    18    19 ar  
    36    18    54 1   
    37    19    20 ar  
    38    19    28 1   
    39    20    21 ar  
    40    20    55 1   
    41    21    56 1   
    42    22    23 ar  
    43    22    27 ar  
    44    22    61 1   
    45    23    24 ar  
    46    23    57 1   
    47    24    25 ar  
    48    24    58 1   
    49    25    26 ar  
    50    25    37 1   
    51    26    27 ar  
    52    26    38 1   
    53    27    59 1   
    54    28    36 2   
    55    29    61 1   
    56    30    62 1   
    57    31    63 1   
    58    33    60 1   
    59    45    61 1   
    60    46    61 1   
    61    47    62 1   
    62    48    62 1   
    63    49    62 1   
    64    50    63 1   
    65    51    63 1   
    66    52    63 1   
@<TRIPOS>SUBSTRUCTURE
     1 J4C         1 TEMP              0 ****  ****    0 ROOT
