@<TRIPOS>MOLECULE
J4C
   63    66     1     0     0
SMALL
No Charge or Current Charge


@<TRIPOS>ATOM
      1 C2          12.8880   -56.0500    -3.6350 c          1 J4C       0.617000
      2 C5          12.3580   -57.5100    -1.3200 cc         1 J4C      -0.389600
      3 C6          13.7230   -57.0270    -1.5230 c          1 J4C       0.642600
      4 N            3.3850   -60.2840    -1.7870 ns         1 J4C      -0.428900
      5 CA           1.9660   -60.5270    -2.1480 c3         1 J4C      -0.045300
      6 C            1.8600   -61.3290    -3.4870 c          1 J4C       0.728000
      7 OXT          0.9000   -62.0730    -3.6340 o          1 J4C      -0.736500
      8 CB           1.1290   -59.2170    -2.1770 c3         1 J4C      -0.048400
      9 CG           1.6350   -58.1330    -3.1660 c3         1 J4C      -0.202400
     10 CD           0.7110   -56.9040    -3.1220 c          1 J4C       0.714000
     11 OE1         -0.2570   -56.8820    -3.8660 o          1 J4C      -0.764500
     12 OE2          0.9580   -56.0220    -2.3140 o          1 J4C      -0.764500
     13 O            2.7940   -61.2840    -4.2790 o          1 J4C      -0.736500
     14 C4          11.3700   -57.2600    -2.2190 cd         1 J4C       0.484900
     15 C8          10.4380   -58.3790    -0.6670 cc         1 J4C       0.752400
     16 CAP          8.1270   -59.2180    -0.0950 ca         1 J4C       0.273000
     17 CAQ          7.2700   -59.1670     1.0130 ca         1 J4C      -0.158000
     18 CAR          5.8930   -59.4090     0.8640 ca         1 J4C      -0.053500
     19 CAS          5.3460   -59.7180    -0.4020 ca         1 J4C      -0.115600
     20 CAT          6.2210   -59.7800    -1.5150 ca         1 J4C      -0.053500
     21 CAU          7.5970   -59.5350    -1.3550 ca         1 J4C      -0.158000
     22 CAV         15.4610   -54.3450    -2.4190 ca         1 J4C      -0.079300
     23 CAW         15.1860   -53.2160    -3.2160 ca         1 J4C      -0.078000
     24 CAX         15.3620   -51.9210    -2.6980 ca         1 J4C      -0.103000
     25 CAY         15.8140   -51.7430    -1.3800 ca         1 J4C       0.118000
     26 CAZ         16.0940   -52.8680    -0.5770 ca         1 J4C       0.115000
     27 CBA         15.9180   -54.1620    -1.0980 ca         1 J4C      -0.079000
     28 CBD          3.8560   -59.9730    -0.5270 c          1 J4C       0.601700
     29 N1          13.9090   -56.3020    -2.7050 n          1 J4C      -0.379400
     30 N3          11.6060   -56.5500    -3.3680 n          1 J4C      -0.352300
     31 N7          11.7620   -58.2440    -0.3060 na         1 J4C      -0.175500
     32 N9          10.1740   -57.7950    -1.8050 nd         1 J4C      -0.738000
     33 NAO          9.4880   -58.9900     0.0930 nu         1 J4C      -0.937900
     34 O2          13.1030   -55.4100    -4.6560 o          1 J4C      -0.563000
     35 O6          14.6220   -57.2390    -0.7240 o          1 J4C      -0.573000
     36 OBE          3.1040   -59.9160     0.4400 o          1 J4C      -0.640100
     37 Cl1         16.0230   -50.1040    -0.7600 cl         1 J4C      -0.189000
     38 Cl2         16.6640   -52.6840     1.0820 cl         1 J4C      -0.182000
     39 H1           4.0650   -60.3340    -2.5350 hn         1 J4C       0.301500
     40 H2           1.5410   -61.1750    -1.3710 h1         1 J4C       0.040700
     41 H4           1.1030   -58.7900    -1.1670 hc         1 J4C       0.034700
     42 H5           0.0920   -59.4730    -2.4260 hc         1 J4C       0.034700
     43 H6           1.6070   -58.5910    -4.1620 hc         1 J4C       0.025700
     44 H7           2.6440   -57.8590    -2.8330 hc         1 J4C       0.025700
     45 H9          16.0290   -56.4160    -2.5570 h1         1 J4C       0.077200
     46 H10         15.4520   -55.7400    -4.0590 h1         1 J4C       0.077200
     47 H11          9.6050   -56.8310    -4.0880 h1         1 J4C       0.064367
     48 H12         10.2940   -55.2090    -4.3590 h1         1 J4C       0.064367
     49 H13         10.8360   -56.5950    -5.3480 h1         1 J4C       0.064367
     50 H14         11.8630   -59.6390     1.2930 h1         1 J4C       0.059033
     51 H15         13.4360   -59.0990     0.6660 h1         1 J4C       0.059033
     52 H16         12.4570   -57.9930     1.6740 h1         1 J4C       0.059033
     53 H17          7.6650   -58.9330     1.9980 ha         1 J4C       0.109000
     54 H18          5.2500   -59.3570     1.7400 ha         1 J4C       0.138500
     55 H19          5.8560   -60.0190    -2.5100 ha         1 J4C       0.138500
     56 H20          8.2500   -59.6040    -2.2200 ha         1 J4C       0.109000
     57 H21         14.8350   -53.3410    -4.2380 ha         1 J4C       0.125000
     58 H22         15.1470   -51.0550    -3.3190 ha         1 J4C       0.127000
     59 H23         16.1370   -55.0210    -0.4700 ha         1 J4C       0.143000
     60 H24          9.8050   -59.0950     1.0500 hn         1 J4C       0.493000
     61 CAA         15.2640   -55.7510    -2.9780 c3         1 J4C       0.145300
     62 CAH         10.5200   -56.2830    -4.3440 c3         1 J4C       0.097300
     63 CAN         12.4160   -58.7750     0.9060 c3         1 J4C       0.059900
@<TRIPOS>BOND
     1     1    29 1   
     2     1    30 1   
     3     1    34 2   
     4     2     3 1   
     5     2    14 2   
     6     2    31 1   
     7     3    29 1   
     8     3    35 2   
     9     4     5 1   
    10     4    28 1   
    11     4    39 1   
    12     5     6 1   
    13     5     8 1   
    14     5    40 1   
    15     6     7 1   
    16     6    13 1   
    17     8     9 1   
    18     8    41 1   
    19     8    42 1   
    20     9    10 1   
    21     9    43 1   
    22     9    44 1   
    23    10    11 1   
    24    10    12 1   
    25    14    30 1   
    26    14    32 1   
    27    15    31 1   
    28    15    32 2   
    29    15    33 1   
    30    16    17 ar  
    31    16    21 ar  
    32    16    33 1   
    33    17    18 ar  
    34    17    53 1   
    35    18    19 ar  
    36    18    54 1   
    37    19    20 ar  
    38    19    28 1   
    39    20    21 ar  
    40    20    55 1   
    41    21    56 1   
    42    22    23 ar  
    43    22    27 ar  
    44    22    61 1   
    45    23    24 ar  
    46    23    57 1   
    47    24    25 ar  
    48    24    58 1   
    49    25    26 ar  
    50    25    37 1   
    51    26    27 ar  
    52    26    38 1   
    53    27    59 1   
    54    28    36 2   
    55    29    61 1   
    56    30    62 1   
    57    31    63 1   
    58    33    60 1   
    59    45    61 1   
    60    46    61 1   
    61    47    62 1   
    62    48    62 1   
    63    49    62 1   
    64    50    63 1   
    65    51    63 1   
    66    52    63 1   
@<TRIPOS>SUBSTRUCTURE
     1 J4C         1 TEMP              0 ****  ****    0 ROOT
