@<TRIPOS>MOLECULE
J4E
   52    55     1     0     0
SMALL
abcg2


@<TRIPOS>ATOM
      1 C10        -20.5640     5.0810    -0.1040 c3         1 J4E       0.171600
      2 C17        -14.3780     7.9190    -0.2880 cc         1 J4E       0.255500
      3 C20        -12.5190     9.7310     2.4410 ca         1 J4E      -0.149500
      4 C21        -11.2200     9.3820     2.1180 ca         1 J4E       0.167000
      5 C24        -11.9580     8.1000     0.2520 ca         1 J4E      -0.069000
      6 C02        -24.1560     9.2150    -4.9120 ca         1 J4E      -0.062300
      7 C03        -23.4770    10.4270    -4.7750 ca         1 J4E      -0.111000
      8 C04        -22.4640    10.5830    -3.8370 ca         1 J4E      -0.081500
      9 C05        -22.1230     9.5260    -2.9950 ca         1 J4E      -0.115000
     10 C07        -19.9190     8.2370    -1.8610 c6         1 J4E       0.251300
     11 C09        -19.8060     6.0370    -0.9960 c6         1 J4E       0.158300
     12 C12        -18.3380     6.1700    -0.6020 c6         1 J4E       0.133300
     13 C14        -17.6780     7.2040    -1.5320 c6         1 J4E       0.066300
     14 C16        -15.7420     8.1010    -0.1640 cd         1 J4E      -0.186000
     15 C18        -13.2870     8.4290     0.5430 ca         1 J4E      -0.120500
     16 C19        -13.5500     9.2490     1.6460 ca         1 J4E      -0.069000
     17 C23        -10.9160     8.5750     1.0370 ca         1 J4E      -0.149500
     18 C27        -18.4400     8.5270    -1.5590 c6         1 J4E       0.148300
     19 C29        -22.8090     8.3150    -3.1020 ca         1 J4E      -0.081500
     20 C30        -23.8020     8.1660    -4.0610 ca         1 J4E      -0.111000
     21 N15        -16.2780     7.4100    -1.1900 na         1 J4E       0.123800
     22 N25        -14.1710     7.1290    -1.3820 nc         1 J4E      -0.352000
     23 N26        -15.3160     6.8240    -1.9220 nd         1 J4E      -0.195800
     24 O08        -20.4530     7.3140    -0.9310 os         1 J4E      -0.415000
     25 O11        -21.8130     4.7790    -0.7250 oh         1 J4E      -0.724000
     26 O13        -18.2510     6.5580     0.7640 oh         1 J4E      -0.709000
     27 O28        -17.8460     9.3250    -2.5670 oh         1 J4E      -0.709000
     28 S06        -20.8570     9.7890    -1.7740 ss         1 J4E      -0.159000
     29 H102       -19.9640     4.1730     0.0230 h1         1 J4E       0.043200
     30 H101       -20.7130     5.5380     0.8760 h1         1 J4E       0.043200
     31 H201       -12.7160    10.3650     3.2950 ha         1 J4E       0.133000
     32 H241       -11.7390     7.4670    -0.5960 ha         1 J4E       0.125500
     33 H013       -24.7860     8.6340    -6.8840 hc         1 J4E       0.045367
     34 H011       -25.9850     8.3340    -5.6300 hc         1 J4E       0.045367
     35 H012       -25.6960     9.9830    -6.2090 hc         1 J4E       0.045367
     36 H041       -21.9330    11.5240    -3.7640 ha         1 J4E       0.130000
     37 H071       -20.0080     7.8510    -2.8820 h2         1 J4E       0.072700
     38 H091       -19.8470     5.6660    -2.0280 h1         1 J4E       0.061700
     39 H121       -17.8440     5.2080    -0.7560 h1         1 J4E       0.061700
     40 H141       -17.6710     6.7950    -2.5440 h1         1 J4E       0.107700
     41 H161       -16.3400     8.6440     0.5430 h4         1 J4E       0.173000
     42 H191       -14.5680     9.5180     1.8920 ha         1 J4E       0.125500
     43 H231        -9.8870     8.3260     0.8190 ha         1 J4E       0.133000
     44 H271       -18.3760     9.0140    -0.5800 h1         1 J4E       0.069700
     45 H291       -22.5710     7.4960    -2.4380 ha         1 J4E       0.130000
     46 H301       -24.3220     7.2180    -4.1390 ha         1 J4E       0.115500
     47 H111       -22.3630     4.3110    -0.0850 ho         1 J4E       0.510000
     48 H131       -17.4420     6.1940     1.1420 ho         1 J4E       0.512000
     49 H281       -18.3120    10.1720    -2.5960 ho         1 J4E       0.526000
     50 F22        -10.2070     9.8500     2.8910 f          1 J4E      -0.184000
     51 H031       -23.7340    11.2590    -5.4200 ha         1 J4E       0.115500
     52 C01        -25.2180     9.0340    -5.9620 c3         1 J4E      -0.048800
@<TRIPOS>BOND
     1     1    11 1   
     2     1    25 1   
     3     1    29 1   
     4     1    30 1   
     5     2    14 2   
     6     2    15 1   
     7     2    22 1   
     8     3     4 ar  
     9     3    16 ar  
    10     3    31 1   
    11     4    17 ar  
    12     4    50 1   
    13     5    15 ar  
    14     5    17 ar  
    15     5    32 1   
    16     6     7 ar  
    17     6    20 ar  
    18     6    52 1   
    19     7     8 ar  
    20     7    51 1   
    21     8     9 ar  
    22     8    36 1   
    23     9    19 ar  
    24     9    28 1   
    25    10    18 1   
    26    10    24 1   
    27    10    28 1   
    28    10    37 1   
    29    11    12 1   
    30    11    24 1   
    31    11    38 1   
    32    12    13 1   
    33    12    26 1   
    34    12    39 1   
    35    13    18 1   
    36    13    21 1   
    37    13    40 1   
    38    14    21 1   
    39    14    41 1   
    40    15    16 ar  
    41    16    42 1   
    42    17    43 1   
    43    18    27 1   
    44    18    44 1   
    45    19    20 ar  
    46    19    45 1   
    47    20    46 1   
    48    21    23 1   
    49    22    23 2   
    50    25    47 1   
    51    26    48 1   
    52    27    49 1   
    53    33    52 1   
    54    34    52 1   
    55    35    52 1   
@<TRIPOS>SUBSTRUCTURE
     1 J4E         1 TEMP              0 ****  ****    0 ROOT
