@<TRIPOS>MOLECULE
J4E
   52    55     1     0     0
SMALL
No Charge or Current Charge


@<TRIPOS>ATOM
      1 C10        -20.7960     5.3930    -0.3350 c3         1 J4E       0.171600
      2 C17        -14.2210     7.6100    -0.1210 cc         1 J4E       0.255500
      3 C20        -12.6530     9.8960     2.4910 ca         1 J4E      -0.149500
      4 C21        -11.3030     9.5390     2.3810 ca         1 J4E       0.167000
      5 C24        -11.8640     7.9340     0.6440 ca         1 J4E      -0.069000
      6 C02        -24.4610     9.1300    -4.6580 ca         1 J4E      -0.062300
      7 C03        -24.0680    10.4270    -4.2830 ca         1 J4E      -0.111000
      8 C04        -22.8220    10.6410    -3.6700 ca         1 J4E      -0.081500
      9 C05        -21.9500     9.5650    -3.4220 ca         1 J4E      -0.115000
     10 C07        -19.5320     8.2950    -2.3950 c6         1 J4E       0.251300
     11 C09        -19.7860     6.1800    -1.2340 c6         1 J4E       0.158300
     12 C12        -18.3460     6.2350    -0.6280 c6         1 J4E       0.133300
     13 C14        -17.4410     7.0470    -1.6070 c6         1 J4E       0.066300
     14 C16        -15.5150     8.0170    -0.2200 cd         1 J4E      -0.186000
     15 C18        -13.2300     8.2890     0.7320 ca         1 J4E      -0.120500
     16 C19        -13.6150     9.2730     1.6740 ca         1 J4E      -0.069000
     17 C23        -10.9060     8.5590     1.4620 ca         1 J4E      -0.149500
     18 C27        -18.0520     8.4550    -1.9050 c6         1 J4E       0.148300
     19 C29        -22.3430     8.2630    -3.8020 ca         1 J4E      -0.081500
     20 C30        -23.5910     8.0510    -4.4160 ca         1 J4E      -0.111000
     21 N15        -16.0400     7.1120    -1.1200 na         1 J4E       0.123800
     22 N25        -13.9700     6.5250    -0.9090 nc         1 J4E      -0.352000
     23 N26        -15.0840     6.2090    -1.5210 nd         1 J4E      -0.195800
     24 O08        -20.2930     7.5240    -1.4390 os         1 J4E      -0.415000
     25 O11        -22.1090     5.2800    -0.9230 oh         1 J4E      -0.724000
     26 O13        -18.3520     6.8350     0.6890 oh         1 J4E      -0.709000
     27 O28        -17.2490     9.1550    -2.8840 oh         1 J4E      -0.709000
     28 S06        -20.3700     9.9320    -2.6390 ss         1 J4E      -0.159000
     29 H102       -20.3790     4.3930    -0.1510 h1         1 J4E       0.043200
     30 H101       -20.8610     5.9020     0.6360 h1         1 J4E       0.043200
     31 H201       -12.9550    10.6520     3.2100 ha         1 J4E       0.133000
     32 H241       -11.5370     7.1740    -0.0630 ha         1 J4E       0.125500
     33 H013       -25.7210     8.9700    -6.4150 hc         1 J4E       0.045367
     34 H011       -26.2060     7.9030    -5.0860 hc         1 J4E       0.045367
     35 H012       -26.5500     9.6350    -4.9970 hc         1 J4E       0.045367
     36 H041       -22.5310    11.6510    -3.3850 ha         1 J4E       0.130000
     37 H071       -19.5330     7.7900    -3.3720 h2         1 J4E       0.072700
     38 H091       -19.7450     5.6670    -2.2070 h1         1 J4E       0.061700
     39 H121       -17.9610     5.2050    -0.5710 h1         1 J4E       0.061700
     40 H141       -17.4170     6.5000    -2.5600 h1         1 J4E       0.107700
     41 H161       -16.0710     8.8240     0.2360 h4         1 J4E       0.173000
     42 H191       -14.6560     9.5630     1.7890 ha         1 J4E       0.125500
     43 H231        -9.8570     8.2830     1.3840 ha         1 J4E       0.133000
     44 H271       -18.0790     9.0260    -0.9650 h1         1 J4E       0.069700
     45 H291       -21.7030     7.4040    -3.6310 ha         1 J4E       0.130000
     46 H301       -23.8810     7.0430    -4.7030 ha         1 J4E       0.115500
     47 H111       -22.6930     4.8640    -0.2460 ho         1 J4E       0.510000
     48 H131       -17.5900     6.4600     1.1900 ho         1 J4E       0.512000
     49 H281       -17.5710    10.0870    -2.9200 ho         1 J4E       0.526000
     50 F22        -10.3820    10.1380     3.1670 f          1 J4E      -0.184000
     51 H031       -24.7270    11.2720    -4.4680 ha         1 J4E       0.115500
     52 C01        -25.8080     8.8970    -5.3250 c3         1 J4E      -0.048800
@<TRIPOS>BOND
     1     1    11 1   
     2     1    25 1   
     3     1    29 1   
     4     1    30 1   
     5     2    14 2   
     6     2    15 1   
     7     2    22 1   
     8     3     4 ar  
     9     3    16 ar  
    10     3    31 1   
    11     4    17 ar  
    12     4    50 1   
    13     5    15 ar  
    14     5    17 ar  
    15     5    32 1   
    16     6     7 ar  
    17     6    20 ar  
    18     6    52 1   
    19     7     8 ar  
    20     7    51 1   
    21     8     9 ar  
    22     8    36 1   
    23     9    19 ar  
    24     9    28 1   
    25    10    18 1   
    26    10    24 1   
    27    10    28 1   
    28    10    37 1   
    29    11    12 1   
    30    11    24 1   
    31    11    38 1   
    32    12    13 1   
    33    12    26 1   
    34    12    39 1   
    35    13    18 1   
    36    13    21 1   
    37    13    40 1   
    38    14    21 1   
    39    14    41 1   
    40    15    16 ar  
    41    16    42 1   
    42    17    43 1   
    43    18    27 1   
    44    18    44 1   
    45    19    20 ar  
    46    19    45 1   
    47    20    46 1   
    48    21    23 1   
    49    22    23 2   
    50    25    47 1   
    51    26    48 1   
    52    27    49 1   
    53    33    52 1   
    54    34    52 1   
    55    35    52 1   
@<TRIPOS>SUBSTRUCTURE
     1 J4E         1 TEMP              0 ****  ****    0 ROOT
