@<TRIPOS>MOLECULE
J4F
   59    63     1     0     0
SMALL
No Charge or Current Charge


@<TRIPOS>ATOM
      1 O2         -52.3800    16.2220    -5.0400 o          1 J4F      -0.557000
      2 N3         -52.6600    18.2070    -3.9470 n          1 J4F      -0.343300
      3 C4         -53.3210    18.9000    -2.9610 cc         1 J4F       0.482900
      4 N7         -54.6800    19.3160    -1.3110 na         1 J4F      -0.173500
      5 C5         -54.2530    18.3140    -2.1770 cd         1 J4F      -0.392600
      6 C6         -54.6250    16.9070    -2.3320 c          1 J4F       0.644600
      7 C8         -53.9600    20.4480    -1.6710 cd         1 J4F       0.740400
      8 C2         -52.9600    16.8520    -4.1650 c          1 J4F       0.616000
      9 N1         -53.9390    16.2480    -3.3570 n          1 J4F      -0.379400
     10 N9         -53.1360    20.2130    -2.6630 nc         1 J4F      -0.651000
     11 CAA        -53.4300    13.9460    -2.6480 cc         1 J4F      -0.080300
     12 CAB        -52.2990    13.1810    -2.8940 cd         1 J4F      -0.202200
     13 CAD        -54.2450    14.8100    -3.5740 c3         1 J4F       0.157200
     14 CAQ        -55.6900    19.1970    -0.2420 c3         1 J4F       0.059900
     15 CAS        -53.4830    22.9010    -1.2550 ca         1 J4F       0.382900
     16 CAU        -51.8880    24.2410    -2.2180 ca         1 J4F       0.243300
     17 CAW        -53.2850    25.2230    -0.6820 ca         1 J4F       0.152300
     18 CAX        -53.9370    23.9910    -0.5060 ca         1 J4F      -0.302000
     19 CAY        -53.7020    26.4620     0.0880 c3         1 J4F      -0.144400
     20 CAZ        -50.7180    24.3760    -3.1890 c3         1 J4F      -0.086700
     21 CBA        -51.1400    24.3990    -4.6840 c3         1 J4F      -0.207400
     22 CBB        -51.9840    25.6460    -5.0010 c          1 J4F       0.724000
     23 CBE        -52.7290    12.9320    -0.7140 ca         1 J4F      -0.039200
     24 CBF        -51.8510    12.5370    -1.6840 ca         1 J4F      -0.102800
     25 CBG        -50.7760    11.6790    -1.4130 ca         1 J4F       0.175000
     26 CBH        -50.6200    11.2220    -0.0870 ca         1 J4F      -0.143000
     27 CBI        -51.5280    11.6290     0.9220 ca         1 J4F      -0.094000
     28 CBJ        -52.6000    12.4960     0.6120 ca         1 J4F      -0.125000
     29 NAC        -53.6780    13.7750    -1.2700 na         1 J4F      -0.205700
     30 NAR        -54.1050    21.6700    -1.0940 nu         1 J4F      -0.919800
     31 NAT        -52.4530    23.0210    -2.1120 nb         1 J4F      -0.185000
     32 NAV        -52.2540    25.3510    -1.5390 nb         1 J4F      -0.206000
     33 OBC        -53.1990    25.5620    -4.9060 o          1 J4F      -0.743000
     34 OBD        -51.3990    26.6740    -5.3040 o          1 J4F      -0.743000
     35 Cl         -49.6560    11.1850    -2.6780 cl         1 J4F      -0.213000
     36 H1         -51.8170    13.0940    -3.8660 ha         1 J4F       0.220000
     37 H2         -55.3130    14.6230    -3.4030 h1         1 J4F       0.081200
     38 H3         -54.0470    14.5220    -4.6150 h1         1 J4F       0.081200
     39 H4         -51.3830    19.8600    -4.4470 h1         1 J4F       0.079367
     40 H5         -50.7120    18.2540    -4.8000 h1         1 J4F       0.079367
     41 H6         -52.0030    18.9270    -5.8330 h1         1 J4F       0.079367
     42 H7         -55.4910    19.9240     0.5550 h1         1 J4F       0.055367
     43 H8         -56.6880    19.3760    -0.6580 h1         1 J4F       0.055367
     44 H9         -55.6550    18.1910     0.1940 h1         1 J4F       0.055367
     45 H10        -54.7650    23.8930     0.1900 ha         1 J4F       0.110000
     46 H11        -53.0380    26.6290     0.9450 hc         1 J4F       0.045033
     47 H12        -53.6660    27.3560    -0.5450 hc         1 J4F       0.045033
     48 H13        -54.7250    26.3690     0.4700 hc         1 J4F       0.045033
     49 H14        -50.0230    23.5410    -3.0370 hc         1 J4F       0.040200
     50 H15        -50.1410    25.2840    -2.9690 hc         1 J4F       0.040200
     51 H16        -51.7200    23.4840    -4.8560 hc         1 J4F       0.031200
     52 H17        -50.1990    24.4320    -5.2460 hc         1 J4F       0.031200
     53 H18        -49.7970    10.5560     0.1590 ha         1 J4F       0.119000
     54 H19        -51.4000    11.2720     1.9420 ha         1 J4F       0.107000
     55 H20        -53.3020    12.8150     1.3790 ha         1 J4F       0.115000
     56 H21        -54.4320    14.2240    -0.7570 hn         1 J4F       0.369000
     57 H22        -54.8470    21.6730    -0.4050 hn         1 J4F       0.497000
     58 O6         -55.4600    16.3600    -1.6250 o          1 J4F      -0.603000
     59 CAK        -51.6310    18.8530    -4.8030 c3         1 J4F       0.083300
@<TRIPOS>BOND
     1     1     8 2   
     2     2     3 1   
     3     2     8 1   
     4     2    59 1   
     5     3     5 2   
     6     3    10 1   
     7     4     5 1   
     8     4     7 1   
     9     4    14 1   
    10     5     6 1   
    11     6     9 1   
    12     6    58 2   
    13     7    10 2   
    14     7    30 1   
    15     8     9 1   
    16     9    13 1   
    17    11    12 2   
    18    11    13 1   
    19    11    29 1   
    20    12    24 1   
    21    12    36 1   
    22    13    37 1   
    23    13    38 1   
    24    14    42 1   
    25    14    43 1   
    26    14    44 1   
    27    15    18 ar  
    28    15    30 1   
    29    15    31 ar  
    30    16    20 1   
    31    16    31 ar  
    32    16    32 ar  
    33    17    18 ar  
    34    17    19 1   
    35    17    32 ar  
    36    18    45 1   
    37    19    46 1   
    38    19    47 1   
    39    19    48 1   
    40    20    21 1   
    41    20    49 1   
    42    20    50 1   
    43    21    22 1   
    44    21    51 1   
    45    21    52 1   
    46    22    33 1   
    47    22    34 1   
    48    23    24 ar  
    49    23    28 ar  
    50    23    29 1   
    51    24    25 ar  
    52    25    26 ar  
    53    25    35 1   
    54    26    27 ar  
    55    26    53 1   
    56    27    28 ar  
    57    27    54 1   
    58    28    55 1   
    59    29    56 1   
    60    30    57 1   
    61    39    59 1   
    62    40    59 1   
    63    41    59 1   
@<TRIPOS>SUBSTRUCTURE
     1 J4F         1 TEMP              0 ****  ****    0 ROOT
