@<TRIPOS>MOLECULE
J4F
   59    63     1     0     0
SMALL
bcc


@<TRIPOS>ATOM
      1 O2         -52.8550    16.4480    -5.0550 o          1 J4F      -0.632500
      2 N3         -53.1440    18.4530    -4.0660 n          1 J4F      -0.410300
      3 C4         -53.7050    19.1530    -3.0380 cc         1 J4F       0.548200
      4 N7         -54.8250    19.5630    -1.2090 na         1 J4F      -0.194900
      5 C5         -54.4720    18.5440    -2.0780 cd         1 J4F      -0.407200
      6 C6         -54.7480    17.1570    -2.0890 c          1 J4F       0.787100
      7 C8         -54.2810    20.6840    -1.7200 cd         1 J4F       0.740400
      8 C2         -53.3550    17.1020    -4.1620 c          1 J4F       0.825500
      9 N1         -54.1730    16.5180    -3.1990 n          1 J4F      -0.513400
     10 N9         -53.5910    20.4700    -2.8300 nc         1 J4F      -0.651000
     11 CAA        -53.4240    14.2410    -2.6310 cc         1 J4F      -0.080300
     12 CAB        -52.4530    13.4340    -3.1560 cd         1 J4F      -0.152200
     13 CAD        -54.4260    15.0830    -3.3420 c3         1 J4F       0.157200
     14 CAQ        -55.6190    19.4610    -0.0010 c3         1 J4F       0.030600
     15 CAS        -53.7400    23.0360    -1.2440 ca         1 J4F       0.711200
     16 CAU        -51.8330    24.0790    -1.8760 ca         1 J4F       0.769300
     17 CAW        -53.4490    25.3560    -0.9120 ca         1 J4F       0.480600
     18 CAX        -54.2640    24.2480    -0.7900 ca         1 J4F      -0.450600
     19 CAY        -53.8900    26.7060    -0.4480 c3         1 J4F      -0.144400
     20 CAZ        -50.4610    23.9660    -2.4700 c3         1 J4F      -0.086700
     21 CBA        -50.3750    22.9650    -3.6090 c3         1 J4F      -0.207400
     22 CBB        -51.3420    23.2530    -4.7730 c          1 J4F       0.934600
     23 CBE        -52.3820    13.3320    -0.8770 ca         1 J4F      -0.039200
     24 CBF        -51.7760    12.8370    -2.0540 ca         1 J4F      -0.102800
     25 CBG        -50.7200    11.9350    -1.9170 ca         1 J4F       0.083400
     26 CBH        -50.2860    11.5470    -0.6690 ca         1 J4F      -0.161000
     27 CBI        -50.9100    12.0620     0.4790 ca         1 J4F      -0.112000
     28 CBJ        -51.9590    12.9550     0.3970 ca         1 J4F      -0.143000
     29 NAC        -53.3770    14.1770    -1.2640 na         1 J4F      -0.155400
     30 NAR        -54.4980    21.8920    -1.1200 nu         1 J4F      -0.864600
     31 NAT        -52.5300    22.9520    -1.7610 nb         1 J4F      -0.711000
     32 NAV        -52.2320    25.2710    -1.4600 nb         1 J4F      -0.732000
     33 OBC        -51.3760    22.3950    -5.6810 o          1 J4F      -0.848300
     34 OBD        -51.9990    24.3110    -4.7230 o          1 J4F      -0.848300
     35 CL         -49.9670    11.3040    -3.3460 cl         1 J4F      -0.121400
     36 H1         -52.2540    13.2870    -4.2050 ha         1 J4F       0.170000
     37 H2         -55.4300    14.8830    -2.9710 h1         1 J4F       0.081200
     38 H3         -54.4170    14.8330    -4.3990 h1         1 J4F       0.081200
     39 H4         -52.2550    20.1610    -4.8520 h1         1 J4F       0.079367
     40 H5         -51.2920    18.6910    -5.0270 h1         1 J4F       0.079367
     41 H6         -52.7100    18.9530    -6.0570 h1         1 J4F       0.079367
     42 H7         -55.1580    20.0430     0.7950 h1         1 J4F       0.055367
     43 H8         -56.6350    19.8190    -0.1680 h1         1 J4F       0.055367
     44 H9         -55.6610    18.4240     0.3100 h1         1 J4F       0.055367
     45 H10        -55.2570    24.3190    -0.3660 ha         1 J4F       0.128000
     46 H11        -53.2200    27.0780     0.3290 hc         1 J4F       0.045033
     47 H12        -53.8530    27.4200    -1.2720 hc         1 J4F       0.045033
     48 H13        -54.9020    26.6880    -0.0500 hc         1 J4F       0.045033
     49 H14        -49.7730    23.6720    -1.6690 hc         1 J4F       0.040200
     50 H15        -50.1450    24.9570    -2.7940 hc         1 J4F       0.040200
     51 H16        -50.5570    21.9530    -3.2400 hc         1 J4F       0.031200
     52 H17        -49.3520    22.9550    -3.9980 hc         1 J4F       0.031200
     53 H18        -49.4680    10.8480    -0.5680 ha         1 J4F       0.137000
     54 H19        -50.5530    11.7460     1.4500 ha         1 J4F       0.125000
     55 H20        -52.4350    13.3460     1.2870 ha         1 J4F       0.133000
     56 H21        -54.0020    14.6720    -0.6470 hn         1 J4F       0.318700
     57 H22        -55.3540    21.9880    -0.5930 hn         1 J4F       0.441800
     58 O6         -55.3960    16.5230    -1.2680 o          1 J4F      -0.678500
     59 CAK        -52.3010    19.0980    -5.0600 c3         1 J4F       0.083300
@<TRIPOS>BOND
     1     1     8 2   
     2     2     3 1   
     3     2     8 1   
     4     2    59 1   
     5     3     5 2   
     6     3    10 1   
     7     4     5 1   
     8     4     7 1   
     9     4    14 1   
    10     5     6 1   
    11     6     9 1   
    12     6    58 2   
    13     7    10 2   
    14     7    30 1   
    15     8     9 1   
    16     9    13 1   
    17    11    12 2   
    18    11    13 1   
    19    11    29 1   
    20    12    24 1   
    21    12    36 1   
    22    13    37 1   
    23    13    38 1   
    24    14    42 1   
    25    14    43 1   
    26    14    44 1   
    27    15    18 ar  
    28    15    30 1   
    29    15    31 ar  
    30    16    20 1   
    31    16    31 ar  
    32    16    32 ar  
    33    17    18 ar  
    34    17    19 1   
    35    17    32 ar  
    36    18    45 1   
    37    19    46 1   
    38    19    47 1   
    39    19    48 1   
    40    20    21 1   
    41    20    49 1   
    42    20    50 1   
    43    21    22 1   
    44    21    51 1   
    45    21    52 1   
    46    22    33 1   
    47    22    34 1   
    48    23    24 ar  
    49    23    28 ar  
    50    23    29 1   
    51    24    25 ar  
    52    25    26 ar  
    53    25    35 1   
    54    26    27 ar  
    55    26    53 1   
    56    27    28 ar  
    57    27    54 1   
    58    28    55 1   
    59    29    56 1   
    60    30    57 1   
    61    39    59 1   
    62    40    59 1   
    63    41    59 1   
@<TRIPOS>SUBSTRUCTURE
     1 J4F         1 TEMP              0 ****  ****    0 ROOT
