@<TRIPOS>MOLECULE
J4H
   67    71     1     0     0
SMALL
abcg2


@<TRIPOS>ATOM
      1 N1           4.4750     1.1940     0.6050 ns         1 J4H      -0.316900
      2 C2           4.4970    -0.1670     0.3810 ca         1 J4H       0.289400
      3 O2          -2.0520     1.9400     0.3840 o          1 J4H      -0.447000
      4 N3          -0.1660    -3.9750    -0.1830 ny         1 J4H      -0.793000
      5 C4           4.7000    -2.8520    -0.0460 ca         1 J4H      -0.154500
      6 O4           3.8270     3.2690     0.8880 os         1 J4H      -0.462100
      7 N5          -4.3200     1.6060     0.5680 ns         1 J4H      -0.316900
      8 C6           3.4910    -4.8920    -0.3240 ca         1 J4H      -0.181000
      9 C1           3.3950     2.0390     0.6070 c          1 J4H       0.643100
     10 C10         -2.6510    -3.9020    -0.1420 ca         1 J4H       0.065300
     11 C11         -3.6200    -1.8460     0.0820 ca         1 J4H       0.115000
     12 C12         -4.9090    -2.4050    -0.0740 ca         1 J4H      -0.154500
     13 C13         -5.0230    -3.7900    -0.2790 ca         1 J4H      -0.001000
     14 C14         -3.8900    -4.5510    -0.3150 ca         1 J4H      -0.181000
     15 C15         -6.0170    -1.5300    -0.0070 ca         1 J4H      -0.023000
     16 C16         -5.8060    -0.2060     0.2040 ca         1 J4H      -0.182500
     17 C17         -4.4650     0.2520     0.3460 ca         1 J4H       0.289400
     18 C18         -3.1650     2.3460     0.5870 c          1 J4H       0.643100
     19 C19         -2.4340     4.5790     0.8370 c3         1 J4H       0.179600
     20 C20         -2.2010     5.1100    -0.5700 c3         1 J4H      -0.113400
     21 C21         -0.9240     5.9380    -0.6500 c3         1 J4H       0.166800
     22 C22          1.4980     5.8200    -0.6500 c3         1 J4H       0.166800
     23 C23          2.6870     4.8710    -0.5690 c3         1 J4H      -0.113400
     24 C24          2.8700     4.3310     0.8420 c3         1 J4H       0.179600
     25 C25          5.8830    -2.0840     0.0470 ca         1 J4H      -0.023000
     26 C26          5.7920    -0.7480     0.2630 ca         1 J4H      -0.182500
     27 C3           3.4660    -2.1770     0.0910 ca         1 J4H       0.115000
     28 C5           4.6890    -4.2400    -0.2620 ca         1 J4H      -0.001000
     29 C7           2.3150    -4.1330    -0.1660 ca         1 J4H       0.065300
     30 C8           1.0100    -4.8720    -0.2040 c3         1 J4H       0.045300
     31 C9          -1.4200    -4.7590    -0.1490 c3         1 J4H       0.045300
     32 N2           3.3870    -0.8480     0.3000 nb         1 J4H      -0.153000
     33 N4          -2.5110    -2.6170     0.0430 nb         1 J4H      -0.152500
     34 N6          -3.4220    -0.5300     0.2880 nb         1 J4H      -0.153000
     35 N7           2.2910    -2.8410     0.0280 nb         1 J4H      -0.152500
     36 N8           0.2480     5.0850    -0.6800 n7         1 J4H      -0.872400
     37 O1           2.2500     1.7390     0.3940 o          1 J4H      -0.447000
     38 O3          -3.4840     3.6080     0.8720 os         1 J4H      -0.462100
     39 H1           5.3750     1.6290     0.7470 hn         1 J4H       0.179000
     40 H2          -0.1170    -3.3400     0.6180 hn         1 J4H       0.539000
     41 H3          -0.1550    -3.3620    -1.0010 hn         1 J4H       0.539000
     42 H4          -5.1780     2.1250     0.6910 hn         1 J4H       0.179000
     43 H5           3.4340    -5.9600    -0.4870 ha         1 J4H       0.135000
     44 H6          -6.0000    -4.2380    -0.4080 ha         1 J4H       0.140000
     45 H7          -3.9310    -5.6200    -0.4700 ha         1 J4H       0.135000
     46 H8          -7.0200    -1.9190    -0.1250 ha         1 J4H       0.138000
     47 H9          -6.6310     0.4910     0.2600 ha         1 J4H       0.142000
     48 H10         -1.5270     4.1590     1.2750 h1         1 J4H       0.064700
     49 H11         -2.7690     5.3830     1.4900 h1         1 J4H       0.064700
     50 H12         -2.1230     4.2900    -1.2870 hc         1 J4H       0.067200
     51 H13         -3.0550     5.7200    -0.8690 hc         1 J4H       0.067200
     52 H14         -0.9380     6.5290    -1.5690 h1         1 J4H       0.034200
     53 H15         -0.9010     6.6660     0.1790 h1         1 J4H       0.034200
     54 H16          1.5470     6.5470     0.1780 h1         1 J4H       0.034200
     55 H17          1.5690     6.4070    -1.5700 h1         1 J4H       0.034200
     56 H18          2.5280     4.0580    -1.2810 hc         1 J4H       0.067200
     57 H19          3.5970     5.3920    -0.8720 hc         1 J4H       0.067200
     58 H20          1.9290     3.9990     1.2840 h1         1 J4H       0.064700
     59 H21          3.2780     5.1070     1.4890 h1         1 J4H       0.064700
     60 H22          6.8470    -2.5650    -0.0550 ha         1 J4H       0.138000
     61 H23          6.6770    -0.1310     0.3400 ha         1 J4H       0.142000
     62 H24          5.6220    -4.7770    -0.3760 ha         1 J4H       0.140000
     63 H25          0.9300    -5.5360     0.6570 hx         1 J4H       0.100450
     64 H26          0.9410    -5.4840    -1.1030 hx         1 J4H       0.100450
     65 H27         -1.4170    -5.4210    -1.0140 hx         1 J4H       0.100450
     66 H28         -1.3920    -5.3810     0.7470 hx         1 J4H       0.100450
     67 H29          0.2170     4.4370     0.0970 hn         1 J4H       0.417000
@<TRIPOS>BOND
     1     1     2 1   
     2     1     9 1   
     3     1    39 1   
     4     2    26 ar  
     5     2    32 ar  
     6     3    18 2   
     7     4    30 1   
     8     4    31 1   
     9     4    40 1   
    10     4    41 1   
    11     5    25 ar  
    12     5    27 ar  
    13     5    28 ar  
    14     6     9 1   
    15     6    24 1   
    16     7    17 1   
    17     7    18 1   
    18     7    42 1   
    19     8    28 ar  
    20     8    29 ar  
    21     8    43 1   
    22     9    37 2   
    23    10    14 ar  
    24    10    31 1   
    25    10    33 ar  
    26    11    12 ar  
    27    11    33 ar  
    28    11    34 ar  
    29    12    13 ar  
    30    12    15 ar  
    31    13    14 ar  
    32    13    44 1   
    33    14    45 1   
    34    15    16 ar  
    35    15    46 1   
    36    16    17 ar  
    37    16    47 1   
    38    17    34 ar  
    39    18    38 1   
    40    19    20 1   
    41    19    38 1   
    42    19    48 1   
    43    19    49 1   
    44    20    21 1   
    45    20    50 1   
    46    20    51 1   
    47    21    36 1   
    48    21    52 1   
    49    21    53 1   
    50    22    23 1   
    51    22    36 1   
    52    22    54 1   
    53    22    55 1   
    54    23    24 1   
    55    23    56 1   
    56    23    57 1   
    57    24    58 1   
    58    24    59 1   
    59    25    26 ar  
    60    25    60 1   
    61    26    61 1   
    62    27    32 ar  
    63    27    35 ar  
    64    28    62 1   
    65    29    30 1   
    66    29    35 ar  
    67    30    63 1   
    68    30    64 1   
    69    31    65 1   
    70    31    66 1   
    71    36    67 1   
@<TRIPOS>SUBSTRUCTURE
     1 J4H         1 TEMP              0 ****  ****    0 ROOT
