@<TRIPOS>MOLECULE
J4H
   67    71     1     0     0
SMALL
No Charge or Current Charge


@<TRIPOS>ATOM
      1 N1           4.5670     1.2140     0.3810 ns         1 J4H      -0.316900
      2 C2           4.5940    -0.1560     0.0490 ca         1 J4H       0.289400
      3 O2          -2.1210     1.9670     0.4310 o          1 J4H      -0.447000
      4 N3          -0.1850    -4.3240     0.1590 ny         1 J4H      -0.793000
      5 C4           4.5710    -2.8390    -0.4970 ca         1 J4H      -0.154500
      6 O4           3.9700     3.2970     0.9220 os         1 J4H      -0.462100
      7 N5          -4.4060     1.6290     0.3600 ns         1 J4H      -0.316900
      8 C6           3.3820    -4.9370    -0.4030 ca         1 J4H      -0.181000
      9 C1           3.5000     2.0600     0.5700 c          1 J4H       0.643100
     10 C10         -2.6900    -4.0220     0.2250 ca         1 J4H       0.065300
     11 C11         -3.6280    -1.8770     0.1300 ca         1 J4H       0.115000
     12 C12         -4.7800    -2.4060    -0.5200 ca         1 J4H      -0.154500
     13 C13         -4.8590    -3.7830    -0.7990 ca         1 J4H      -0.001000
     14 C14         -3.7910    -4.6050    -0.4200 ca         1 J4H      -0.181000
     15 C15         -5.8430    -1.5560    -0.8780 ca         1 J4H      -0.023000
     16 C16         -5.7300    -0.1900    -0.5880 ca         1 J4H      -0.182500
     17 C17         -4.5580     0.2670     0.0280 ca         1 J4H       0.289400
     18 C18         -3.2670     2.3730     0.5550 c          1 J4H       0.643100
     19 C19         -2.5830     4.6390     1.0410 c3         1 J4H       0.179600
     20 C20         -2.2000     5.1490    -0.3680 c3         1 J4H      -0.113400
     21 C21         -0.9560     6.0580    -0.3890 c3         1 J4H       0.166800
     22 C22          1.5430     5.9430    -0.3830 c3         1 J4H       0.166800
     23 C23          2.6980     4.9220    -0.3570 c3         1 J4H      -0.113400
     24 C24          3.0250     4.3800     1.0540 c3         1 J4H       0.179600
     25 C25          5.7090    -2.0900    -0.8510 ca         1 J4H      -0.023000
     26 C26          5.7220    -0.7200    -0.5610 ca         1 J4H      -0.182500
     27 C3           3.4700    -2.2050     0.1470 ca         1 J4H       0.115000
     28 C5           4.5240    -4.2170    -0.7770 ca         1 J4H      -0.001000
     29 C7           2.3370    -4.2540     0.2370 ca         1 J4H       0.065300
     30 C8           1.0870    -4.9920     0.6910 c3         1 J4H       0.045300
     31 C9          -1.5150    -4.8710     0.6850 c3         1 J4H       0.045300
     32 N2           3.5120    -0.8790     0.4050 nb         1 J4H      -0.153000
     33 N4          -2.6170    -2.7000     0.4890 nb         1 J4H      -0.152500
     34 N6          -3.5490    -0.5520     0.3880 nb         1 J4H      -0.153000
     35 N7           2.3850    -2.9320     0.5010 nb         1 J4H      -0.152500
     36 N8           0.2590     5.2530    -0.1700 n7         1 J4H      -0.872400
     37 O1           2.3220     1.7620     0.4420 o          1 J4H      -0.447000
     38 O3          -3.6220     3.6480     0.9040 os         1 J4H      -0.462100
     39 H1           5.4740     1.6460     0.4860 hn         1 J4H       0.179000
     40 H2          -0.1380    -3.3010     0.3570 hn         1 J4H       0.539000
     41 H3          -0.1830    -4.3350    -0.8850 hn         1 J4H       0.539000
     42 H4          -5.2710     2.1430     0.4600 hn         1 J4H       0.179000
     43 H5           3.3140    -6.0050    -0.5990 ha         1 J4H       0.135000
     44 H6          -5.7310    -4.2070    -1.2960 ha         1 J4H       0.140000
     45 H7          -3.8200    -5.6740    -0.6160 ha         1 J4H       0.135000
     46 H8          -6.7350    -1.9430    -1.3680 ha         1 J4H       0.138000
     47 H9          -6.5290     0.5010    -0.8440 ha         1 J4H       0.142000
     48 H10         -1.7080     4.2250     1.5600 h1         1 J4H       0.064700
     49 H11         -2.9450     5.4890     1.6350 h1         1 J4H       0.064700
     50 H12         -2.0310     4.3060    -1.0490 hc         1 J4H       0.067200
     51 H13         -3.0490     5.7120    -0.7730 hc         1 J4H       0.067200
     52 H14         -0.9060     6.5480    -1.3710 h1         1 J4H       0.034200
     53 H15         -1.0530     6.8460     0.3710 h1         1 J4H       0.034200
     54 H16          1.7090     6.7180     0.3780 h1         1 J4H       0.034200
     55 H17          1.5430     6.4340    -1.3660 h1         1 J4H       0.034200
     56 H18          2.4550     4.0990    -1.0380 hc         1 J4H       0.067200
     57 H19          3.5970     5.4040    -0.7570 hc         1 J4H       0.067200
     58 H20          2.1130     4.0480     1.5680 h1         1 J4H       0.064700
     59 H21          3.4620     5.1930     1.6500 h1         1 J4H       0.064700
     60 H22          6.5640    -2.5590    -1.3360 ha         1 J4H       0.138000
     61 H23          6.5820    -0.1050    -0.8130 ha         1 J4H       0.142000
     62 H24          5.3550    -4.7200    -1.2690 ha         1 J4H       0.140000
     63 H25          1.0440    -5.0010     1.7840 hx         1 J4H       0.100450
     64 H26          1.1110    -6.0300     0.3490 hx         1 J4H       0.100450
     65 H27         -1.6340    -5.9030     0.3430 hx         1 J4H       0.100450
     66 H28         -1.4790    -4.8840     1.7780 hx         1 J4H       0.100450
     67 H29          0.2390     4.8680     0.7800 hn         1 J4H       0.417000
@<TRIPOS>BOND
     1     1     2 1   
     2     1     9 1   
     3     1    39 1   
     4     2    26 ar  
     5     2    32 ar  
     6     3    18 2   
     7     4    30 1   
     8     4    31 1   
     9     4    40 1   
    10     4    41 1   
    11     5    25 ar  
    12     5    27 ar  
    13     5    28 ar  
    14     6     9 1   
    15     6    24 1   
    16     7    17 1   
    17     7    18 1   
    18     7    42 1   
    19     8    28 ar  
    20     8    29 ar  
    21     8    43 1   
    22     9    37 2   
    23    10    14 ar  
    24    10    31 1   
    25    10    33 ar  
    26    11    12 ar  
    27    11    33 ar  
    28    11    34 ar  
    29    12    13 ar  
    30    12    15 ar  
    31    13    14 ar  
    32    13    44 1   
    33    14    45 1   
    34    15    16 ar  
    35    15    46 1   
    36    16    17 ar  
    37    16    47 1   
    38    17    34 ar  
    39    18    38 1   
    40    19    20 1   
    41    19    38 1   
    42    19    48 1   
    43    19    49 1   
    44    20    21 1   
    45    20    50 1   
    46    20    51 1   
    47    21    36 1   
    48    21    52 1   
    49    21    53 1   
    50    22    23 1   
    51    22    36 1   
    52    22    54 1   
    53    22    55 1   
    54    23    24 1   
    55    23    56 1   
    56    23    57 1   
    57    24    58 1   
    58    24    59 1   
    59    25    26 ar  
    60    25    60 1   
    61    26    61 1   
    62    27    32 ar  
    63    27    35 ar  
    64    28    62 1   
    65    29    30 1   
    66    29    35 ar  
    67    30    63 1   
    68    30    64 1   
    69    31    65 1   
    70    31    66 1   
    71    36    67 1   
@<TRIPOS>SUBSTRUCTURE
     1 J4H         1 TEMP              0 ****  ****    0 ROOT
