@<TRIPOS>MOLECULE
J4I
   44    47     1     0     0
SMALL
No Charge or Current Charge


@<TRIPOS>ATOM
      1 C1          94.7380   -13.1140     9.2000 ca         1 J4I      -0.078200
      2 C2          93.6350   -12.4150     8.7490 ca         1 J4I       0.076400
      3 C3          95.4620   -14.0040     8.3860 ca         1 J4I      -0.105000
      4 N4          94.9580   -12.7840    10.5090 na         1 J4I      -0.294600
      5 C5          93.1780   -12.5660     7.4250 ca         1 J4I      -0.041000
      6 N6          93.1000   -11.6090     9.7420 nc         1 J4I      -0.588100
      7 C7          94.9980   -14.1420     7.0670 ca         1 J4I       0.073100
      8 C8          93.9310   -11.8760    10.7610 cd         1 J4I       0.429700
      9 C9          93.9010   -13.4520     6.6060 ca         1 J4I       0.033100
     10 O10         95.5350   -14.9500     6.1180 os         1 J4I      -0.344100
     11 S11         93.8050   -11.1500    12.3620 ss         1 J4I      -0.248200
     12 O12         93.6180   -13.7430     5.3100 os         1 J4I      -0.343100
     13 C13         94.7140   -14.6520     4.9330 c5         1 J4I       0.372600
     14 C14         92.3170   -10.0530    12.2110 c3         1 J4I       0.021300
     15 C15         92.0290    -9.2960    13.5040 ca         1 J4I       0.343300
     16 C16         92.6970    -8.0890    13.8560 ca         1 J4I      -0.094300
     17 N17         91.0750    -9.8610    14.2800 nb         1 J4I      -0.665000
     18 C18         92.3350    -7.4410    15.0670 ca         1 J4I      -0.060300
     19 C19         93.7760    -7.4840    12.9450 c3         1 J4I      -0.049800
     20 C20         90.7480    -9.2570    15.4420 ca         1 J4I       0.349300
     21 C21         91.3550    -8.0560    15.8800 ca         1 J4I       0.054100
     22 C22         92.9730    -6.1090    15.4780 c3         1 J4I      -0.052800
     23 C23         89.6790    -9.9530    16.2700 c3         1 J4I      -0.139400
     24 O24         90.9790    -7.4930    17.0840 os         1 J4I      -0.355100
     25 C25         91.8020    -7.7040    18.2430 c3         1 J4I       0.147900
     26 H1          96.3270   -14.5540     8.7490 ha         1 J4I       0.139000
     27 H2          95.6740   -13.1030    11.1480 hn         1 J4I       0.367000
     28 H3          92.3110   -12.0260     7.0570 ha         1 J4I       0.149000
     29 H5          95.3410   -14.1620     4.1780 h2         1 J4I       0.064700
     30 H6          94.2990   -15.5830     4.5280 h2         1 J4I       0.064700
     31 H7          92.4650    -9.3430    11.3890 h1         1 J4I       0.100200
     32 H8          91.4510   -10.6740    11.9510 h1         1 J4I       0.100200
     33 H9          93.3500    -6.7090    12.2980 hc         1 J4I       0.049700
     34 H10         94.5870    -7.0270    13.5240 hc         1 J4I       0.049700
     35 H11         94.2570    -8.2260    12.3000 hc         1 J4I       0.049700
     36 H12         93.0680    -5.4280    14.6240 hc         1 J4I       0.051033
     37 H13         92.3800    -5.5750    16.2290 hc         1 J4I       0.051033
     38 H14         93.9740    -6.2670    15.8960 hc         1 J4I       0.051033
     39 H15         89.2370   -10.8050    15.7390 hc         1 J4I       0.054033
     40 H16         90.1000   -10.3280    17.2100 hc         1 J4I       0.054033
     41 H17         88.8670    -9.2600    16.5170 hc         1 J4I       0.054033
     42 H18         91.3710    -7.1950    19.1140 h1         1 J4I       0.036700
     43 H19         91.8770    -8.7740    18.4740 h1         1 J4I       0.036700
     44 H20         92.8140    -7.3130    18.0820 h1         1 J4I       0.036700
@<TRIPOS>BOND
     1     1     2 ar  
     2     1     3 ar  
     3     1     4 1   
     4     2     5 ar  
     5     2     6 1   
     6     3     7 ar  
     7     3    26 1   
     8     4     8 1   
     9     4    27 1   
    10     5     9 ar  
    11     5    28 1   
    12     6     8 2   
    13     7     9 ar  
    14     7    10 1   
    15     8    11 1   
    16     9    12 1   
    17    10    13 1   
    18    11    14 1   
    19    12    13 1   
    20    13    29 1   
    21    13    30 1   
    22    14    15 1   
    23    14    31 1   
    24    14    32 1   
    25    15    16 ar  
    26    15    17 ar  
    27    16    18 ar  
    28    16    19 1   
    29    17    20 ar  
    30    18    21 ar  
    31    18    22 1   
    32    19    33 1   
    33    19    34 1   
    34    19    35 1   
    35    20    21 ar  
    36    20    23 1   
    37    21    24 1   
    38    22    36 1   
    39    22    37 1   
    40    22    38 1   
    41    23    39 1   
    42    23    40 1   
    43    23    41 1   
    44    24    25 1   
    45    25    42 1   
    46    25    43 1   
    47    25    44 1   
@<TRIPOS>SUBSTRUCTURE
     1 J4I         1 TEMP              0 ****  ****    0 ROOT
