@<TRIPOS>MOLECULE
J4I
   44    47     1     0     0
SMALL
bcc


@<TRIPOS>ATOM
      1 C1          94.6510   -13.1040     9.3680 ca         1 J4I      -0.078200
      2 C2          93.6680   -12.2430     8.8580 ca         1 J4I       0.076400
      3 C3          95.4560   -13.9270     8.5730 ca         1 J4I      -0.123000
      4 N4          94.5920   -12.9300    10.7280 na         1 J4I      -0.244300
      5 C5          93.4320   -12.1550     7.4760 ca         1 J4I      -0.059000
      6 N6          93.0440   -11.5770     9.8870 nc         1 J4I      -0.588100
      7 C7          95.2010   -13.8130     7.2310 ca         1 J4I       0.073100
      8 C8          93.6230   -12.0100    10.9700 cd         1 J4I       0.429700
      9 C9          94.2270   -12.9580     6.7030 ca         1 J4I       0.033100
     10 O10         95.8290   -14.4500     6.2100 os         1 J4I      -0.320900
     11 S11         93.2930   -11.5050    12.6060 ss         1 J4I      -0.200300
     12 O12         94.2490   -13.0560     5.3460 os         1 J4I      -0.319900
     13 C13         95.0540   -14.1830     5.0510 c5         1 J4I       0.326200
     14 C14         91.8390   -10.4310    12.3570 c3         1 J4I      -0.026600
     15 C15         91.7300    -9.5350    13.5570 ca         1 J4I       0.408600
     16 C16         92.4850    -8.3700    13.6810 ca         1 J4I      -0.159600
     17 N17         90.8750    -9.9500    14.4890 nb         1 J4I      -0.665000
     18 C18         92.3160    -7.6040    14.8440 ca         1 J4I      -0.060300
     19 C19         93.4540    -7.9150    12.6300 c3         1 J4I      -0.049800
     20 C20         90.7160    -9.2490    15.6000 ca         1 J4I       0.414600
     21 C21         91.4300    -8.0680    15.8100 ca         1 J4I      -0.011200
     22 C22         93.0690    -6.3220    15.0220 c3         1 J4I      -0.052800
     23 C23         89.7330    -9.7510    16.6150 c3         1 J4I      -0.139400
     24 O24         91.2190    -7.3710    16.9610 os         1 J4I      -0.331900
     25 C25         92.1660    -7.6420    17.9870 c3         1 J4I       0.124700
     26 H1          96.2120   -14.5870     8.9770 ha         1 J4I       0.157000
     27 H2          95.1650   -13.3940    11.4170 hn         1 J4I       0.316700
     28 H3          92.6830   -11.4950     7.0600 ha         1 J4I       0.167000
     29 H5          95.7120   -13.9590     4.2120 h2         1 J4I       0.064700
     30 H6          94.4190   -15.0480     4.8210 h2         1 J4I       0.064700
     31 H7          91.9690    -9.8830    11.4260 h1         1 J4I       0.100200
     32 H8          90.9500   -11.0540    12.2730 h1         1 J4I       0.100200
     33 H9          93.1180    -6.9880    12.1610 hc         1 J4I       0.049700
     34 H10         94.4350    -7.7120    13.0630 hc         1 J4I       0.049700
     35 H11         93.5990    -8.6470    11.8410 hc         1 J4I       0.049700
     36 H12         92.9930    -5.6990    14.1300 hc         1 J4I       0.051033
     37 H13         92.7010    -5.7430    15.8650 hc         1 J4I       0.051033
     38 H14         94.1320    -6.5130    15.1840 hc         1 J4I       0.051033
     39 H15         89.2690   -10.6680    16.2590 hc         1 J4I       0.054033
     40 H16         90.2100    -9.9640    17.5740 hc         1 J4I       0.054033
     41 H17         88.9460    -9.0200    16.8060 hc         1 J4I       0.054033
     42 H18         91.8810    -7.0490    18.8530 h1         1 J4I       0.036700
     43 H19         92.1640    -8.6990    18.2670 h1         1 J4I       0.036700
     44 H20         93.1790    -7.3630    17.6870 h1         1 J4I       0.036700
@<TRIPOS>BOND
     1     1     2 ar  
     2     1     3 ar  
     3     1     4 1   
     4     2     5 ar  
     5     2     6 1   
     6     3     7 ar  
     7     3    26 1   
     8     4     8 1   
     9     4    27 1   
    10     5     9 ar  
    11     5    28 1   
    12     6     8 2   
    13     7     9 ar  
    14     7    10 1   
    15     8    11 1   
    16     9    12 1   
    17    10    13 1   
    18    11    14 1   
    19    12    13 1   
    20    13    29 1   
    21    13    30 1   
    22    14    15 1   
    23    14    31 1   
    24    14    32 1   
    25    15    16 ar  
    26    15    17 ar  
    27    16    18 ar  
    28    16    19 1   
    29    17    20 ar  
    30    18    21 ar  
    31    18    22 1   
    32    19    33 1   
    33    19    34 1   
    34    19    35 1   
    35    20    21 ar  
    36    20    23 1   
    37    21    24 1   
    38    22    36 1   
    39    22    37 1   
    40    22    38 1   
    41    23    39 1   
    42    23    40 1   
    43    23    41 1   
    44    24    25 1   
    45    25    42 1   
    46    25    43 1   
    47    25    44 1   
@<TRIPOS>SUBSTRUCTURE
     1 J4I         1 TEMP              0 ****  ****    0 ROOT
