@<TRIPOS>MOLECULE
J4J
   24    24     1     0     0
SMALL
abcg2


@<TRIPOS>ATOM
      1 O30         -3.5300    -1.9280     0.6170 o          1 J4J      -0.393000
      2 N28         -2.4620    -1.5230     0.2200 no         1 J4J       0.692200
      3 O29         -1.5440    -2.2530    -0.0890 o          1 J4J      -0.393000
      4 C27         -2.2560    -0.1000     0.0980 ca         1 J4J      -0.185200
      5 C26         -3.3800     0.7120     0.2260 ca         1 J4J      -0.030000
      6 C25         -3.2640     2.0790     0.1100 ca         1 J4J      -0.135000
      7 C24         -2.0110     2.6280    -0.1320 ca         1 J4J      -0.049000
      8 C23         -0.8950     1.8230    -0.2540 ca         1 J4J      -0.154000
      9 C22         -0.9740     0.4290    -0.1420 ca         1 J4J      -0.067000
     10 S21          0.4470    -0.5950    -0.2840 ss         1 J4J       0.089000
     11 C20          1.7810     0.6310    -0.2930 c3         1 J4J      -0.129400
     12 C18          3.0790    -0.1570    -0.2600 c          1 J4J       0.637100
     13 O19          3.1210    -1.3340    -0.5680 o          1 J4J      -0.536100
     14 N17          4.1320     0.5810     0.1200 ns         1 J4J      -0.407300
     15 N16          5.4050     0.0430     0.1540 n8         1 J4J      -0.716200
     16 H1          -4.3460     0.2660     0.4110 ha         1 J4J       0.152000
     17 H2          -4.1370     2.7090     0.2040 ha         1 J4J       0.130000
     18 H3          -1.8960     3.6990    -0.2300 ha         1 J4J       0.121000
     19 H4           0.0510     2.3030    -0.4500 ha         1 J4J       0.118000
     20 H5           1.7590     1.2320    -1.2050 h1         1 J4J       0.079700
     21 H6           1.7070     1.3040     0.5630 h1         1 J4J       0.079700
     22 H7           4.0000     1.5570     0.3450 hn         1 J4J       0.298500
     23 H8           5.9940     0.5410    -0.5010 hn         1 J4J       0.400500
     24 H9           5.7910     0.1780     1.0800 hn         1 J4J       0.400500
@<TRIPOS>BOND
     1     1     2 1   
     2     2     3 1   
     3     2     4 1   
     4     4     5 ar  
     5     4     9 ar  
     6     5     6 ar  
     7     5    16 1   
     8     6     7 ar  
     9     6    17 1   
    10     7     8 ar  
    11     7    18 1   
    12     8     9 ar  
    13     8    19 1   
    14     9    10 1   
    15    10    11 1   
    16    11    12 1   
    17    11    20 1   
    18    11    21 1   
    19    12    13 2   
    20    12    14 1   
    21    14    15 1   
    22    14    22 1   
    23    15    23 1   
    24    15    24 1   
@<TRIPOS>SUBSTRUCTURE
     1 J4J         1 TEMP              0 ****  ****    0 ROOT
