@<TRIPOS>MOLECULE
J4J
   24    24     1     0     0
SMALL
No Charge or Current Charge


@<TRIPOS>ATOM
      1 O30         -3.2120    -1.9940     1.1230 o          1 J4J      -0.393000
      2 N28         -2.5210    -1.5860     0.1810 no         1 J4J       0.692200
      3 O29         -2.1510    -2.3020    -0.7580 o          1 J4J      -0.393000
      4 C27         -2.3410    -0.1090     0.0500 ca         1 J4J      -0.185200
      5 C26         -3.4620     0.7240     0.2630 ca         1 J4J      -0.030000
      6 C25         -3.3450     2.1170     0.1410 ca         1 J4J      -0.135000
      7 C24         -2.1100     2.6910    -0.1920 ca         1 J4J      -0.049000
      8 C23         -0.9870     1.8730    -0.3940 ca         1 J4J      -0.154000
      9 C22         -1.0820     0.4690    -0.2690 ca         1 J4J      -0.067000
     10 S21          0.3800    -0.5700    -0.4860 ss         1 J4J       0.089000
     11 C20          1.8270     0.5410    -0.1910 c3         1 J4J      -0.129400
     12 C18          3.1500    -0.2250    -0.1470 c          1 J4J       0.637100
     13 O19          3.2360    -1.4360    -0.3080 o          1 J4J      -0.536100
     14 N17          4.2680     0.5800     0.0960 ns         1 J4J      -0.407300
     15 N16          5.6480     0.1010     0.1870 n8         1 J4J      -0.716200
     16 H1          -4.4300     0.2920     0.5140 ha         1 J4J       0.152000
     17 H2          -4.2140     2.7520     0.3010 ha         1 J4J       0.130000
     18 H3          -2.0220     3.7710    -0.2910 ha         1 J4J       0.121000
     19 H4          -0.0460     2.3500    -0.6530 ha         1 J4J       0.118000
     20 H5           1.8920     1.2820    -0.9950 h1         1 J4J       0.079700
     21 H6           1.6970     1.0580     0.7670 h1         1 J4J       0.079700
     22 H7           4.0830     1.5770     0.2160 hn         1 J4J       0.298500
     23 H8           6.2510     0.5500    -0.5200 hn         1 J4J       0.400500
     24 H9           6.0640     0.3190     1.1060 hn         1 J4J       0.400500
@<TRIPOS>BOND
     1     1     2 1   
     2     2     3 1   
     3     2     4 1   
     4     4     5 ar  
     5     4     9 ar  
     6     5     6 ar  
     7     5    16 1   
     8     6     7 ar  
     9     6    17 1   
    10     7     8 ar  
    11     7    18 1   
    12     8     9 ar  
    13     8    19 1   
    14     9    10 1   
    15    10    11 1   
    16    11    12 1   
    17    11    20 1   
    18    11    21 1   
    19    12    13 2   
    20    12    14 1   
    21    14    15 1   
    22    14    22 1   
    23    15    23 1   
    24    15    24 1   
@<TRIPOS>SUBSTRUCTURE
     1 J4J         1 TEMP              0 ****  ****    0 ROOT
