@<TRIPOS>MOLECULE
J4K
   21    22     1     0     0
SMALL
abcg2


@<TRIPOS>ATOM
      1 C1          -1.3010    -1.3540     0.2350 ca         1 J4K      -0.157500
      2 C2          -2.6790    -1.2880     0.1650 ca         1 J4K      -0.064500
      3 C3          -3.2990    -0.0590    -0.0140 ca         1 J4K       0.089000
      4 C4          -2.5500     1.0980    -0.1180 ca         1 J4K      -0.064500
      5 C5          -1.1630     1.0340    -0.0460 ca         1 J4K      -0.157500
      6 C6          -0.5350    -0.1940     0.1290 ca         1 J4K       0.135100
      7 O7           0.8050    -0.3560     0.2130 os         1 J4K      -0.357100
      8 C8           1.6260     0.7720     0.0210 c3         1 J4K       0.134300
      9 C9           3.0310     0.2950     0.0650 cc         1 J4K       0.385800
     10 N10          3.4740    -0.8680    -0.4100 na         1 J4K      -0.197700
     11 N11          4.7810    -0.9330    -0.2280 nc         1 J4K      -0.197800
     12 N12          5.1220     0.1590     0.3320 nd         1 J4K      -0.040000
     13 N13          4.0640     0.9460     0.5350 nd         1 J4K      -0.379000
     14 CL1         -5.0290     0.0240    -0.1060 cl         1 J4K      -0.195000
     15 H1          -0.8120    -2.3100     0.3750 ha         1 J4K       0.128000
     16 H2          -3.2660    -2.1930     0.2480 ha         1 J4K       0.134000
     17 H4          -3.0310     2.0570    -0.2560 ha         1 J4K       0.134000
     18 H5          -0.6030     1.9550    -0.1260 ha         1 J4K       0.128000
     19 H8           1.4330     1.2430    -0.9500 h1         1 J4K       0.073200
     20 H8A          1.4850     1.5300     0.7960 h1         1 J4K       0.073200
     21 HN10         2.9700    -1.6310    -0.8410 hn         1 J4K       0.397000
@<TRIPOS>BOND
     1     1     2 ar  
     2     1     6 ar  
     3     1    15 1   
     4     2     3 ar  
     5     2    16 1   
     6     3     4 ar  
     7     3    14 1   
     8     4     5 ar  
     9     4    17 1   
    10     5     6 ar  
    11     5    18 1   
    12     6     7 1   
    13     7     8 1   
    14     8     9 1   
    15     8    19 1   
    16     8    20 1   
    17     9    10 1   
    18     9    13 2   
    19    10    11 1   
    20    10    21 1   
    21    11    12 2   
    22    12    13 1   
@<TRIPOS>SUBSTRUCTURE
     1 J4K         1 TEMP              0 ****  ****    0 ROOT
