@<TRIPOS>MOLECULE
J4K
   21    22     1     0     0
SMALL
No Charge or Current Charge


@<TRIPOS>ATOM
      1 C1          -1.3470    -1.3840     0.0230 ca         1 J4K      -0.157500
      2 C2          -2.7520    -1.3130     0.0310 ca         1 J4K      -0.064500
      3 C3          -3.3900    -0.0610     0.0220 ca         1 J4K       0.089000
      4 C4          -2.6260     1.1180     0.0070 ca         1 J4K      -0.064500
      5 C5          -1.2200     1.0480    -0.0010 ca         1 J4K      -0.157500
      6 C6          -0.5760    -0.2100     0.0080 ca         1 J4K       0.135100
      7 O7           0.7960    -0.3430     0.0010 os         1 J4K      -0.357100
      8 C8           1.6840     0.8000    -0.0150 c3         1 J4K       0.134300
      9 C9           3.1220     0.3350    -0.0190 cc         1 J4K       0.385800
     10 N10          3.5550    -0.9600    -0.0100 na         1 J4K      -0.197700
     11 N11          4.9100    -1.0090    -0.0170 nc         1 J4K      -0.197800
     12 N12          5.2800     0.2440    -0.0310 nd         1 J4K      -0.040000
     13 N13          4.1990     1.0950    -0.0320 nd         1 J4K      -0.379000
     14 Cl1         -5.1460     0.0310     0.0310 cl         1 J4K      -0.195000
     15 H1          -0.8540    -2.3520     0.0300 ha         1 J4K       0.128000
     16 H2          -3.3460    -2.2240     0.0430 ha         1 J4K       0.134000
     17 H4          -3.1240     2.0850     0.0000 ha         1 J4K       0.134000
     18 H5          -0.6530     1.9750    -0.0130 ha         1 J4K       0.128000
     19 H8           1.5140     1.4110    -0.9100 h1         1 J4K       0.073200
     20 H8A          1.5240     1.4280     0.8700 h1         1 J4K       0.073200
     21 HN10         2.9730    -1.7890     0.0020 hn         1 J4K       0.397000
@<TRIPOS>BOND
     1     1     2 ar  
     2     1     6 ar  
     3     1    15 1   
     4     2     3 ar  
     5     2    16 1   
     6     3     4 ar  
     7     3    14 1   
     8     4     5 ar  
     9     4    17 1   
    10     5     6 ar  
    11     5    18 1   
    12     6     7 1   
    13     7     8 1   
    14     8     9 1   
    15     8    19 1   
    16     8    20 1   
    17     9    10 1   
    18     9    13 2   
    19    10    11 1   
    20    10    21 1   
    21    11    12 2   
    22    12    13 1   
@<TRIPOS>SUBSTRUCTURE
     1 J4K         1 TEMP              0 ****  ****    0 ROOT
