@<TRIPOS>MOLECULE
J4L
   53    56     1     0     0
SMALL
No Charge or Current Charge


@<TRIPOS>ATOM
      1 C2         -52.8510    16.9830    -3.7810 c          1 J4L       0.618000
      2 C4         -53.3290    18.9010    -2.4180 cc         1 J4L       0.485900
      3 C8         -54.0770    20.3090    -1.0320 cd         1 J4L       0.747400
      4 C5         -54.2650    18.2170    -1.7250 cd         1 J4L      -0.377600
      5 C6         -54.5790    16.8170    -2.0130 c          1 J4L       0.640600
      6 CAA        -53.5960    22.7590    -0.5540 c6         1 J4L       0.265500
      7 CAB        -53.8690    23.3610    -1.9590 c6         1 J4L      -0.092900
      8 CAC        -53.1810    24.7430    -2.1100 c6         1 J4L      -0.091400
      9 CAD        -51.6590    24.6510    -1.8230 c6         1 J4L       0.169300
     10 CAE        -51.3980    24.0560    -0.4130 c6         1 J4L      -0.091400
     11 CAF        -52.0760    22.6700    -0.2520 c6         1 J4L      -0.092900
     12 CAH        -51.4700    12.1210    -1.2150 ca         1 J4L       0.122000
     13 CAI        -52.7070    12.5170    -0.6660 ca         1 J4L       0.113000
     14 CAJ        -53.5430    13.3940    -1.3800 ca         1 J4L      -0.081000
     15 CAK        -53.1530    13.8840    -2.6420 ca         1 J4L      -0.091300
     16 CAL        -51.9170    13.4820    -3.1860 ca         1 J4L      -0.072000
     17 CAM        -51.0790    12.6050    -2.4750 ca         1 J4L      -0.101000
     18 N1         -53.8250    16.2690    -3.0580 n          1 J4L      -0.375400
     19 N3         -52.6090    18.3210    -3.4330 n          1 J4L      -0.359300
     20 N7         -54.7630    19.1250    -0.7960 na         1 J4L      -0.171500
     21 N9         -53.2070    20.1880    -2.0040 nc         1 J4L      -0.778000
     22 NBD        -54.2850    21.4690    -0.3510 nu         1 J4L      -0.946100
     23 O2         -52.2280    16.4580    -4.6950 o          1 J4L      -0.555000
     24 O6         -55.4290    16.1900    -1.3970 o          1 J4L      -0.557000
     25 OAG        -51.0720    25.9510    -1.9190 oh         1 J4L      -0.659000
     26 Cl2        -53.2330    11.9300     0.9130 cl         1 J4L      -0.179000
     27 H1         -54.0150    23.4700     0.1740 h1         1 J4L       0.047700
     28 H2         -54.9510    23.4660    -2.1150 hc         1 J4L       0.060200
     29 H3         -53.5020    22.6930    -2.7480 hc         1 J4L       0.060200
     30 H4         -53.3460    25.1270    -3.1260 hc         1 J4L       0.050950
     31 H5         -53.6470    25.4640    -1.4240 hc         1 J4L       0.050950
     32 H6         -51.2070    23.9830    -2.5710 h1         1 J4L       0.034700
     33 H7         -50.3180    23.9580    -0.2410 hc         1 J4L       0.050950
     34 H8         -51.7770    24.7420     0.3580 hc         1 J4L       0.050950
     35 H9         -51.9200    22.2990     0.7700 hc         1 J4L       0.060200
     36 H10        -51.5850    21.9550    -0.9230 hc         1 J4L       0.060200
     37 H11        -54.4940    13.6910    -0.9460 ha         1 J4L       0.140000
     38 H12        -51.6010    13.8510    -4.1610 ha         1 J4L       0.128000
     39 H13        -50.1260    12.3000    -2.9000 ha         1 J4L       0.132000
     40 H22        -55.0300    21.4150     0.3360 hn         1 J4L       0.497000
     41 H23        -50.1030    25.8310    -1.8080 ho         1 J4L       0.443000
     42 CAP        -54.0580    14.8420    -3.4090 c3         1 J4L       0.146300
     43 CAW        -51.5830    19.0790    -4.1920 c3         1 J4L       0.101300
     44 CBC        -55.8050    18.8820     0.2190 c3         1 J4L       0.053900
     45 Cl1        -50.3960    11.0230    -0.3480 cl         1 J4L      -0.176000
     46 H14        -55.1060    14.5770    -3.2190 h1         1 J4L       0.078700
     47 H15        -53.9120    14.6940    -4.4880 h1         1 J4L       0.078700
     48 H16        -51.3200    20.0160    -3.6860 h1         1 J4L       0.058033
     49 H17        -50.6690    18.4790    -4.2910 h1         1 J4L       0.058033
     50 H18        -51.9660    19.3140    -5.1930 h1         1 J4L       0.058033
     51 H19        -55.6560    19.5380     1.0840 h1         1 J4L       0.062033
     52 H20        -56.7940    19.0720    -0.2170 h1         1 J4L       0.062033
     53 H21        -55.7560    17.8420     0.5630 h1         1 J4L       0.062033
@<TRIPOS>BOND
     1     1    18 1   
     2     1    19 1   
     3     1    23 2   
     4     2     4 2   
     5     2    19 1   
     6     2    21 1   
     7     3    20 1   
     8     3    21 2   
     9     3    22 1   
    10     4     5 1   
    11     4    20 1   
    12     5    18 1   
    13     5    24 2   
    14     6     7 1   
    15     6    11 1   
    16     6    22 1   
    17     6    27 1   
    18     7     8 1   
    19     7    28 1   
    20     7    29 1   
    21     8     9 1   
    22     8    30 1   
    23     8    31 1   
    24     9    10 1   
    25     9    25 1   
    26     9    32 1   
    27    10    11 1   
    28    10    33 1   
    29    10    34 1   
    30    11    35 1   
    31    11    36 1   
    32    12    13 ar  
    33    12    17 ar  
    34    12    45 1   
    35    13    14 ar  
    36    13    26 1   
    37    14    15 ar  
    38    14    37 1   
    39    15    16 ar  
    40    15    42 1   
    41    16    17 ar  
    42    16    38 1   
    43    17    39 1   
    44    18    42 1   
    45    19    43 1   
    46    20    44 1   
    47    22    40 1   
    48    25    41 1   
    49    42    46 1   
    50    42    47 1   
    51    43    48 1   
    52    43    49 1   
    53    43    50 1   
    54    44    51 1   
    55    44    52 1   
    56    44    53 1   
@<TRIPOS>SUBSTRUCTURE
     1 J4L         1 TEMP              0 ****  ****    0 ROOT
