@<TRIPOS>MOLECULE
J4L
   53    56     1     0     0
SMALL
abcg2


@<TRIPOS>ATOM
      1 C2         -52.7350    16.8900    -3.4970 c          1 J4L       0.618000
      2 C4         -53.2630    18.8600    -2.3010 cc         1 J4L       0.485900
      3 C8         -54.1230    20.3360    -1.0620 cd         1 J4L       0.747400
      4 C5         -54.3210    18.2440    -1.6820 cd         1 J4L      -0.377600
      5 C6         -54.6720    16.9000    -1.9190 c          1 J4L       0.640600
      6 CAA        -53.6720    22.7450    -0.6310 c6         1 J4L       0.265500
      7 CAB        -53.8240    23.3000    -2.0480 c6         1 J4L      -0.092900
      8 CAC        -53.1600    24.6680    -2.1660 c6         1 J4L      -0.091400
      9 CAD        -51.6950    24.6030    -1.7670 c6         1 J4L       0.169300
     10 CAE        -51.5570    24.0600    -0.3480 c6         1 J4L      -0.091400
     11 CAF        -52.2030    22.6850    -0.2170 c6         1 J4L      -0.092900
     12 CAH        -51.3410    12.0900    -1.5770 ca         1 J4L       0.122000
     13 CAI        -52.1040    12.9060    -0.7490 ca         1 J4L       0.113000
     14 CAJ        -52.9910    13.8200    -1.2950 ca         1 J4L      -0.081000
     15 CAK        -53.1200    13.9370    -2.6740 ca         1 J4L      -0.091300
     16 CAL        -52.3530    13.1180    -3.4930 ca         1 J4L      -0.072000
     17 CAM        -51.4730    12.1960    -2.9520 ca         1 J4L      -0.101000
     18 N1         -53.8240    16.2990    -2.8740 n          1 J4L      -0.375400
     19 N3         -52.4620    18.1980    -3.1840 n          1 J4L      -0.359300
     20 N7         -54.8710    19.2290    -0.8650 na         1 J4L      -0.171500
     21 N9         -53.1290    20.1390    -1.9320 nc         1 J4L      -0.778000
     22 NBD        -54.3750    21.4860    -0.4250 nu         1 J4L      -0.946100
     23 O2         -52.0500    16.2750    -4.2920 o          1 J4L      -0.555000
     24 O6         -55.5850    16.2690    -1.4020 o          1 J4L      -0.557000
     25 OAG        -51.1460    25.8980    -1.9000 oh         1 J4L      -0.659000
     26 CL2        -51.9640    12.7870     0.9660 cl         1 J4L      -0.179000
     27 H1         -54.1730    23.4420     0.0480 h1         1 J4L       0.047700
     28 H2         -54.8840    23.3760    -2.2990 hc         1 J4L       0.060200
     29 H3         -53.3740    22.6080    -2.7640 hc         1 J4L       0.060200
     30 H4         -53.2550    25.0360    -3.1900 hc         1 J4L       0.050950
     31 H5         -53.6750    25.3870    -1.5180 hc         1 J4L       0.050950
     32 H6         -51.1890    23.9000    -2.4480 h1         1 J4L       0.034700
     33 H7         -50.5010    23.9980    -0.0700 hc         1 J4L       0.050950
     34 H8         -52.0300    24.7620     0.3480 hc         1 J4L       0.050950
     35 H9         -52.1250    22.3300     0.8130 hc         1 J4L       0.060200
     36 H10        -51.6720    21.9660    -0.8440 hc         1 J4L       0.060200
     37 H11        -53.5880    14.4340    -0.6330 ha         1 J4L       0.140000
     38 H12        -52.4390    13.1970    -4.5690 ha         1 J4L       0.128000
     39 H13        -50.8790    11.5630    -3.5980 ha         1 J4L       0.132000
     40 H22        -55.1960    21.5260     0.1550 hn         1 J4L       0.497000
     41 H23        -50.2180    25.8570    -1.6520 ho         1 J4L       0.443000
     42 CAP        -54.0960    14.9200    -3.2650 c3         1 J4L       0.146300
     43 CAW        -51.3220    18.8410    -3.8140 c3         1 J4L       0.101300
     44 CBC        -56.0020    19.1200     0.0270 c3         1 J4L       0.053900
     45 CL1        -50.2340    10.9500    -0.9140 cl         1 J4L      -0.176000
     46 H14        -55.1040    14.6860    -2.9320 h1         1 J4L       0.078700
     47 H15        -54.0900    14.8480    -4.3510 h1         1 J4L       0.078700
     48 H16        -51.2350    19.8480    -3.4210 h1         1 J4L       0.058033
     49 H17        -50.4050    18.2970    -3.5940 h1         1 J4L       0.058033
     50 H18        -51.4530    18.8940    -4.8930 h1         1 J4L       0.058033
     51 H19        -55.7120    19.3680     1.0480 h1         1 J4L       0.062033
     52 H20        -56.8100    19.7830    -0.2850 h1         1 J4L       0.062033
     53 H21        -56.3690    18.1010     0.0130 h1         1 J4L       0.062033
@<TRIPOS>BOND
     1     1    18 1   
     2     1    19 1   
     3     1    23 2   
     4     2     4 2   
     5     2    19 1   
     6     2    21 1   
     7     3    20 1   
     8     3    21 2   
     9     3    22 1   
    10     4     5 1   
    11     4    20 1   
    12     5    18 1   
    13     5    24 2   
    14     6     7 1   
    15     6    11 1   
    16     6    22 1   
    17     6    27 1   
    18     7     8 1   
    19     7    28 1   
    20     7    29 1   
    21     8     9 1   
    22     8    30 1   
    23     8    31 1   
    24     9    10 1   
    25     9    25 1   
    26     9    32 1   
    27    10    11 1   
    28    10    33 1   
    29    10    34 1   
    30    11    35 1   
    31    11    36 1   
    32    12    13 ar  
    33    12    17 ar  
    34    12    45 1   
    35    13    14 ar  
    36    13    26 1   
    37    14    15 ar  
    38    14    37 1   
    39    15    16 ar  
    40    15    42 1   
    41    16    17 ar  
    42    16    38 1   
    43    17    39 1   
    44    18    42 1   
    45    19    43 1   
    46    20    44 1   
    47    22    40 1   
    48    25    41 1   
    49    42    46 1   
    50    42    47 1   
    51    43    48 1   
    52    43    49 1   
    53    43    50 1   
    54    44    51 1   
    55    44    52 1   
    56    44    53 1   
@<TRIPOS>SUBSTRUCTURE
     1 J4L         1 TEMP              0 ****  ****    0 ROOT
