@<TRIPOS>MOLECULE
J4M
   42    45     1     0     0
SMALL
No Charge or Current Charge


@<TRIPOS>ATOM
      1 C5           0.2620     1.7400     0.1710 cc         1 J4M       0.589900
      2 C6           0.4930     3.1330    -0.0950 cc         1 J4M      -0.208000
      3 C7           1.7580     3.5550    -0.4270 cd         1 J4M       0.013000
      4 C8           2.7200     2.5070    -0.4660 cd         1 J4M      -0.159000
      5 C10          4.5060     1.3170    -0.6560 cc         1 J4M      -0.031400
      6 C13          2.7110    -1.9290     0.2440 cd         1 J4M      -0.196000
      7 C15          2.7200    -4.5030     0.6550 c3         1 J4M      -0.029800
      8 C21         -3.0690     0.1200     0.2580 ca         1 J4M      -0.165300
      9 C22         -4.0080     0.8920     0.9810 ca         1 J4M      -0.049000
     10 C24         -5.7800     0.1760    -0.5220 ca         1 J4M       0.209000
     11 C26         -4.8620    -0.5910    -1.2490 ca         1 J4M      -0.205000
     12 C1          -1.4160    -0.3580     2.1420 c3         1 J4M      -0.116100
     13 C11          3.5170     0.4210    -0.3050 cd         1 J4M      -0.172900
     14 C12          3.7080    -0.9950    -0.1190 cd         1 J4M       0.344800
     15 C14          3.3000    -3.1570     0.3150 cc         1 J4M      -0.151300
     16 C2          -1.6000     0.0890     0.6780 c3         1 J4M       0.295800
     17 C23         -5.3580     0.9170     0.5900 ca         1 J4M      -0.176000
     18 C27         -3.5150    -0.6180    -0.8620 ca         1 J4M       0.220000
     19 F28         -2.6500    -1.3670    -1.5810 f          1 J4M      -0.161000
     20 N16          4.6310    -2.9020    -0.0110 na         1 J4M      -0.000200
     21 N17          4.8900    -1.5650    -0.2800 nc         1 J4M      -0.516800
     22 N19          2.3930     1.1990    -0.1900 na         1 J4M       0.282900
     23 N20          1.1360     0.7410     0.1430 nd         1 J4M      -0.581800
     24 N4          -1.0290     1.4270     0.4920 nu         1 J4M      -0.933100
     25 N9           4.0090     2.6030    -0.7540 nc         1 J4M      -0.265600
     26 H1          -0.3260     3.8390    -0.0310 ha         1 J4M       0.130000
     27 H2           1.9990     4.5920    -0.6410 ha         1 J4M       0.146000
     28 H3           5.5570     1.1180    -0.8470 h4         1 J4M       0.238000
     29 H4           1.6660    -1.7230     0.4360 ha         1 J4M       0.154000
     30 H5           2.8410    -5.2040    -0.1790 hc         1 J4M       0.050033
     31 H6           3.2150    -4.9320     1.5350 hc         1 J4M       0.050033
     32 H7           1.6490    -4.4250     0.8760 hc         1 J4M       0.050033
     33 H8          -3.6940     1.4750     1.8450 ha         1 J4M       0.124000
     34 H9          -5.1930    -1.1630    -2.1100 ha         1 J4M       0.154000
     35 H10         -1.8680     0.3550     2.8410 hc         1 J4M       0.047700
     36 H11         -1.8810    -1.3380     2.3000 hc         1 J4M       0.047700
     37 H12         -0.3510    -0.4460     2.3870 hc         1 J4M       0.047700
     38 H13         -1.0640    -0.6370     0.0490 h1         1 J4M       0.092700
     39 H14         -6.0770     1.5110     1.1480 ha         1 J4M       0.139000
     40 H15          5.3740    -3.5980    -0.0580 hn         1 J4M       0.369000
     41 H16         -1.6800     2.2020     0.4080 hn         1 J4M       0.493000
     42 F25         -7.0770     0.2030    -0.8950 f          1 J4M      -0.169000
@<TRIPOS>BOND
     1     1     2 1   
     2     1    23 2   
     3     1    24 1   
     4     2     3 2   
     5     2    26 1   
     6     3     4 1   
     7     3    27 1   
     8     4    22 1   
     9     4    25 2   
    10     5    13 2   
    11     5    25 1   
    12     5    28 1   
    13     6    14 1   
    14     6    15 2   
    15     6    29 1   
    16     7    15 1   
    17     7    30 1   
    18     7    31 1   
    19     7    32 1   
    20     8     9 ar  
    21     8    16 1   
    22     8    18 ar  
    23     9    17 ar  
    24     9    33 1   
    25    10    11 ar  
    26    10    17 ar  
    27    10    42 1   
    28    11    18 ar  
    29    11    34 1   
    30    12    16 1   
    31    12    35 1   
    32    12    36 1   
    33    12    37 1   
    34    13    14 1   
    35    13    22 1   
    36    14    21 2   
    37    15    20 1   
    38    16    24 1   
    39    16    38 1   
    40    17    39 1   
    41    18    19 1   
    42    20    21 1   
    43    20    40 1   
    44    22    23 1   
    45    24    41 1   
@<TRIPOS>SUBSTRUCTURE
     1 J4M         1 TEMP              0 ****  ****    0 ROOT
