@<TRIPOS>MOLECULE
J4M
   42    45     1     0     0
SMALL
bcc


@<TRIPOS>ATOM
      1 C5           0.2570     1.8530     0.0360 cc         1 J4M       0.655200
      2 C6           0.5890     3.2220    -0.2500 cc         1 J4M      -0.291300
      3 C7           1.8650     3.5370    -0.5720 cd         1 J4M      -0.005000
      4 C8           2.8200     2.5000    -0.6110 cd         1 J4M      -0.108300
      5 C10          4.5070     1.2230    -0.7550 cc         1 J4M       0.018600
      6 C13          2.4050    -1.8430     0.3970 cd         1 J4M      -0.279300
      7 C15          2.3900    -4.3980     0.9270 c3         1 J4M      -0.029800
      8 C21         -2.9280     0.0770     0.2880 ca         1 J4M      -0.165300
      9 C22         -3.9700     0.0800     1.2070 ca         1 J4M      -0.067000
     10 C24         -5.5800    -0.1200    -0.5300 ca         1 J4M       0.173900
     11 C26         -4.5860    -0.1280    -1.4900 ca         1 J4M      -0.223000
     12 C1          -1.1850    -0.1080     2.1400 c3         1 J4M      -0.116100
     13 C11          3.4570     0.3970    -0.3880 cd         1 J4M      -0.172900
     14 C12          3.4320    -1.0250    -0.1240 cd         1 J4M       0.410100
     15 C14          2.9540    -3.1050     0.4590 cc         1 J4M      -0.100600
     16 C2          -1.4720     0.2110     0.6770 c3         1 J4M       0.295800
     17 C23         -5.3000    -0.0180     0.8170 ca         1 J4M      -0.194000
     18 C27         -3.2820    -0.0270    -1.0520 ca         1 J4M       0.184900
     19 F28         -2.3130    -0.0340    -1.9760 f          1 J4M      -0.125900
     20 N16          4.2100    -2.9770    -0.0060 na         1 J4M      -0.000600
     21 N17          4.5240    -1.7380    -0.3650 nc         1 J4M      -0.516800
     22 N19          2.3850     1.2360    -0.3040 na         1 J4M       0.232200
     23 N20          1.1360     0.8850     0.0250 nd         1 J4M      -0.581800
     24 N4          -1.0320     1.5440     0.3060 nu         1 J4M      -0.877900
     25 N9           4.1140     2.5030    -0.8900 nc         1 J4M      -0.265600
     26 H1          -0.1850     3.9770    -0.2130 ha         1 J4M       0.148000
     27 H2           2.1670     4.5490    -0.8000 ha         1 J4M       0.164000
     28 H3           5.5300     0.9200    -0.9180 h4         1 J4M       0.188000
     29 H4           1.4110    -1.5560     0.6900 ha         1 J4M       0.172000
     30 H5           2.4350    -5.1600     0.1490 hc         1 J4M       0.050033
     31 H6           2.9320    -4.7780     1.7940 hc         1 J4M       0.050033
     32 H7           1.3480    -4.2710     1.2120 hc         1 J4M       0.050033
     33 H8          -3.7550     0.1600     2.2640 ha         1 J4M       0.142000
     34 H9          -4.8170    -0.2120    -2.5440 ha         1 J4M       0.172000
     35 H10         -1.6740     0.5930     2.8170 hc         1 J4M       0.047700
     36 H11         -1.5160    -1.1160     2.3910 hc         1 J4M       0.047700
     37 H12         -0.1120    -0.0530     2.3200 hc         1 J4M       0.047700
     38 H13         -0.8960    -0.4920     0.0700 h1         1 J4M       0.092700
     39 H14         -6.0950    -0.0140     1.5490 ha         1 J4M       0.157000
     40 H15          4.8960    -3.7090    -0.1070 hn         1 J4M       0.318700
     41 H16         -1.6540     2.3100     0.5080 hn         1 J4M       0.437800
     42 F25         -6.8540    -0.2140    -0.9310 f          1 J4M      -0.133900
@<TRIPOS>BOND
     1     1     2 1   
     2     1    23 2   
     3     1    24 1   
     4     2     3 2   
     5     2    26 1   
     6     3     4 1   
     7     3    27 1   
     8     4    22 1   
     9     4    25 2   
    10     5    13 2   
    11     5    25 1   
    12     5    28 1   
    13     6    14 1   
    14     6    15 2   
    15     6    29 1   
    16     7    15 1   
    17     7    30 1   
    18     7    31 1   
    19     7    32 1   
    20     8     9 ar  
    21     8    16 1   
    22     8    18 ar  
    23     9    17 ar  
    24     9    33 1   
    25    10    11 ar  
    26    10    17 ar  
    27    10    42 1   
    28    11    18 ar  
    29    11    34 1   
    30    12    16 1   
    31    12    35 1   
    32    12    36 1   
    33    12    37 1   
    34    13    14 1   
    35    13    22 1   
    36    14    21 2   
    37    15    20 1   
    38    16    24 1   
    39    16    38 1   
    40    17    39 1   
    41    18    19 1   
    42    20    21 1   
    43    20    40 1   
    44    22    23 1   
    45    24    41 1   
@<TRIPOS>SUBSTRUCTURE
     1 J4M         1 TEMP              0 ****  ****    0 ROOT
