@<TRIPOS>MOLECULE
J4N
   52    55     1     0     0
SMALL
No Charge or Current Charge


@<TRIPOS>ATOM
      1 C20        -12.9070     8.4110     0.3280 ca         1 J4N      -0.047500
      2 C21        -11.5790     7.9510     0.1780 ca         1 J4N      -0.154000
      3 C22        -10.5480     8.4730     0.9740 ca         1 J4N       0.192000
      4 C24        -10.8170     9.4590     1.9310 ca         1 J4N      -0.190000
      5 C02        -24.6010     9.6110    -4.0490 ca         1 J4N      -0.062300
      6 C03        -23.6920     8.5380    -4.0150 ca         1 J4N      -0.110500
      7 C04        -22.4030     8.7100    -3.4810 ca         1 J4N      -0.082000
      8 C05        -24.2050    10.8630    -3.5460 ca         1 J4N      -0.110500
      9 C06        -22.9160    11.0370    -3.0110 ca         1 J4N      -0.082000
     10 C07        -22.0060     9.9650    -2.9720 ca         1 J4N      -0.115000
     11 C09        -19.4910     8.6490    -2.2970 c6         1 J4N       0.251300
     12 C11        -19.6170     6.4040    -1.3850 c6         1 J4N       0.158300
     13 C12        -20.5410     5.4890    -0.5150 c3         1 J4N       0.171600
     14 C14        -18.1360     6.4240    -0.8870 c6         1 J4N       0.133300
     15 C16        -17.3240     7.3710    -1.8260 c6         1 J4N       0.066300
     16 C18        -15.3210     8.2090    -0.4750 cc         1 J4N      -0.172000
     17 C19        -13.9990     7.8640    -0.5080 cd         1 J4N       0.239500
     18 C25        -12.1280     9.9230     2.0880 ca         1 J4N       0.192000
     19 C27        -13.1680     9.4070     1.2970 ca         1 J4N      -0.154000
     20 C30        -17.9810     8.7880    -1.9030 c6         1 J4N       0.147300
     21 F23         -9.2850     8.0200     0.8170 f          1 J4N      -0.176500
     22 F26        -12.3960    10.8740     3.0080 f          1 J4N      -0.176500
     23 N17        -15.8900     7.4130    -1.4450 na         1 J4N       0.123800
     24 N28        -13.8090     6.8890    -1.4650 nd         1 J4N      -0.344000
     25 N29        -14.9520     6.6130    -2.0310 nc         1 J4N      -0.193800
     26 O10        -20.1620     7.7480    -1.3870 os         1 J4N      -0.413000
     27 O15        -18.0490     6.8630     0.4900 oh         1 J4N      -0.708000
     28 O31        -17.2680     9.6220    -2.8470 oh         1 J4N      -0.710000
     29 S08        -20.3740    10.2800    -2.2770 ss         1 J4N      -0.157000
     30 H211       -11.3380     7.1860    -0.5550 ha         1 J4N       0.144500
     31 H241       -10.0160     9.8610     2.5450 ha         1 J4N       0.151000
     32 H012       -25.9990     9.6320    -5.7070 hc         1 J4N       0.045367
     33 H011       -26.3510     8.3950    -4.4880 hc         1 J4N       0.045367
     34 H013       -26.7210    10.0910    -4.1550 hc         1 J4N       0.045367
     35 H041       -21.7330     7.8560    -3.4720 ha         1 J4N       0.129500
     36 H051       -24.8940    11.7040    -3.5690 ha         1 J4N       0.115500
     37 H061       -22.6230    12.0120    -2.6260 ha         1 J4N       0.129500
     38 H091       -19.5590     8.2640    -3.3250 h2         1 J4N       0.072700
     39 H111       -19.6430     6.0120    -2.4130 h1         1 J4N       0.061700
     40 H121       -20.0950     4.4860    -0.4850 h1         1 J4N       0.043200
     41 H122       -20.5390     5.8760     0.5140 h1         1 J4N       0.043200
     42 H141       -17.7300     5.4050    -0.9840 h1         1 J4N       0.062700
     43 H161       -17.3670     6.9430    -2.8370 h1         1 J4N       0.107700
     44 H181       -15.8720     8.9160     0.1260 h4         1 J4N       0.175000
     45 H271       -14.1730     9.7900     1.4450 ha         1 J4N       0.144500
     46 H301       -17.9450     9.2420    -0.9010 h1         1 J4N       0.069700
     47 H151       -17.2720     6.4130     0.8970 ho         1 J4N       0.512000
     48 H311       -17.6080    10.5430    -2.7450 ho         1 J4N       0.527000
     49 O13        -21.8940     5.4130    -1.0110 oh         1 J4N      -0.723000
     50 H031       -23.9850     7.5650    -4.4040 ha         1 J4N       0.115500
     51 C01        -25.9940     9.4220    -4.6310 c3         1 J4N      -0.048800
     52 H131       -22.4160     4.9040    -0.3480 ho         1 J4N       0.510000
@<TRIPOS>BOND
     1     1     2 ar  
     2     1    17 1   
     3     1    19 ar  
     4     2     3 ar  
     5     2    30 1   
     6     3     4 ar  
     7     3    21 1   
     8     4    18 ar  
     9     4    31 1   
    10     5     6 ar  
    11     5     8 ar  
    12     5    51 1   
    13     6     7 ar  
    14     6    50 1   
    15     7    10 ar  
    16     7    35 1   
    17     8     9 ar  
    18     8    36 1   
    19     9    10 ar  
    20     9    37 1   
    21    10    29 1   
    22    11    20 1   
    23    11    26 1   
    24    11    29 1   
    25    11    38 1   
    26    12    13 1   
    27    12    14 1   
    28    12    26 1   
    29    12    39 1   
    30    13    40 1   
    31    13    41 1   
    32    13    49 1   
    33    14    15 1   
    34    14    27 1   
    35    14    42 1   
    36    15    20 1   
    37    15    23 1   
    38    15    43 1   
    39    16    17 2   
    40    16    23 1   
    41    16    44 1   
    42    17    24 1   
    43    18    19 ar  
    44    18    22 1   
    45    19    45 1   
    46    20    28 1   
    47    20    46 1   
    48    23    25 1   
    49    24    25 2   
    50    27    47 1   
    51    28    48 1   
    52    32    51 1   
    53    33    51 1   
    54    34    51 1   
    55    49    52 1   
@<TRIPOS>SUBSTRUCTURE
     1 J4N         1 TEMP              0 ****  ****    0 ROOT
