@<TRIPOS>MOLECULE
J4N
   52    55     1     0     0
SMALL
abcg2


@<TRIPOS>ATOM
      1 C20        -13.0310     8.5680     0.1020 ca         1 J4N      -0.047500
      2 C21        -11.7340     8.3110    -0.3530 ca         1 J4N      -0.154000
      3 C22        -10.6660     8.8060     0.3670 ca         1 J4N       0.192000
      4 C24        -10.8070     9.5460     1.5280 ca         1 J4N      -0.190000
      5 C02        -24.2190     9.8220    -4.3560 ca         1 J4N      -0.062300
      6 C03        -23.8130     8.6620    -3.6910 ca         1 J4N      -0.110500
      7 C04        -22.7720     8.6790    -2.7720 ca         1 J4N      -0.082000
      8 C05        -23.5410    11.0080    -4.0730 ca         1 J4N      -0.110500
      9 C06        -22.4800    11.0360    -3.1750 ca         1 J4N      -0.082000
     10 C07        -22.0880     9.8690    -2.5210 ca         1 J4N      -0.115000
     11 C09        -19.8330     8.4480    -1.6830 c6         1 J4N       0.251300
     12 C11        -19.6520     6.1630    -1.0930 c6         1 J4N       0.158300
     13 C12        -20.3400     5.1020    -0.2670 c3         1 J4N       0.171600
     14 C14        -18.1580     6.2660    -0.7960 c6         1 J4N       0.133300
     15 C16        -17.5750     7.4040    -1.6500 c6         1 J4N       0.066300
     16 C18        -15.5330     8.1980    -0.3750 cc         1 J4N      -0.172000
     17 C19        -14.1850     8.0750    -0.6480 cd         1 J4N       0.239500
     18 C25        -12.1050     9.7780     1.9480 ca         1 J4N       0.192000
     19 C27        -13.2160     9.3140     1.2730 ca         1 J4N      -0.154000
     20 C30        -18.3370     8.7140    -1.4590 c6         1 J4N       0.147300
     21 F23         -9.4130     8.5610    -0.0820 f          1 J4N      -0.176500
     22 F26        -12.2910    10.5020     3.0750 f          1 J4N      -0.176500
     23 N17        -16.1510     7.5880    -1.4050 na         1 J4N       0.123800
     24 N28        -14.0660     7.3960    -1.8250 nd         1 J4N      -0.344000
     25 N29        -15.2500     7.1060    -2.2800 nc         1 J4N      -0.193800
     26 O10        -20.2960     7.4170    -0.8320 os         1 J4N      -0.413000
     27 O15        -17.9710     6.5030     0.5940 oh         1 J4N      -0.708000
     28 O31        -17.8220     9.6340    -2.4040 oh         1 J4N      -0.710000
     29 S08        -20.7620     9.9700    -1.3400 ss         1 J4N      -0.157000
     30 H211       -11.5630     7.7400    -1.2540 ha         1 J4N       0.144500
     31 H241        -9.9540     9.9220     2.0740 ha         1 J4N       0.151000
     32 H012       -24.9540     9.5020    -6.3500 hc         1 J4N       0.045367
     33 H011       -26.0930     9.0530    -5.0850 hc         1 J4N       0.045367
     34 H013       -25.8100    10.7610    -5.4630 hc         1 J4N       0.045367
     35 H041       -22.4960     7.7720    -2.2510 ha         1 J4N       0.129500
     36 H051       -23.8360    11.9240    -4.5720 ha         1 J4N       0.115500
     37 H061       -21.9520    11.9630    -2.9890 ha         1 J4N       0.129500
     38 H091       -19.9980     8.1870    -2.7330 h2         1 J4N       0.072700
     39 H111       -19.7700     5.9150    -2.1560 h1         1 J4N       0.061700
     40 H121       -19.7350     4.1900    -0.2950 h1         1 J4N       0.043200
     41 H122       -20.4130     5.4380     0.7700 h1         1 J4N       0.043200
     42 H141       -17.6760     5.3320    -1.0930 h1         1 J4N       0.062700
     43 H161       -17.6500     7.1160    -2.6990 h1         1 J4N       0.107700
     44 H181       -16.0700     8.6550     0.4350 h4         1 J4N       0.175000
     45 H271       -14.2010     9.5390     1.6550 ha         1 J4N       0.144500
     46 H301       -18.1990     9.0780    -0.4360 h1         1 J4N       0.069700
     47 H151       -17.1370     6.1060     0.8710 ho         1 J4N       0.512000
     48 H311       -18.2880    10.4740    -2.2920 ho         1 J4N       0.527000
     49 O13        -21.6340     4.8690    -0.8220 oh         1 J4N      -0.723000
     50 H031       -24.3310     7.7290    -3.8830 ha         1 J4N       0.115500
     51 C01        -25.3340     9.7850    -5.3640 c3         1 J4N      -0.048800
     52 H131       -22.1260     4.3050    -0.2140 ho         1 J4N       0.510000
@<TRIPOS>BOND
     1     1     2 ar  
     2     1    17 1   
     3     1    19 ar  
     4     2     3 ar  
     5     2    30 1   
     6     3     4 ar  
     7     3    21 1   
     8     4    18 ar  
     9     4    31 1   
    10     5     6 ar  
    11     5     8 ar  
    12     5    51 1   
    13     6     7 ar  
    14     6    50 1   
    15     7    10 ar  
    16     7    35 1   
    17     8     9 ar  
    18     8    36 1   
    19     9    10 ar  
    20     9    37 1   
    21    10    29 1   
    22    11    20 1   
    23    11    26 1   
    24    11    29 1   
    25    11    38 1   
    26    12    13 1   
    27    12    14 1   
    28    12    26 1   
    29    12    39 1   
    30    13    40 1   
    31    13    41 1   
    32    13    49 1   
    33    14    15 1   
    34    14    27 1   
    35    14    42 1   
    36    15    20 1   
    37    15    23 1   
    38    15    43 1   
    39    16    17 2   
    40    16    23 1   
    41    16    44 1   
    42    17    24 1   
    43    18    19 ar  
    44    18    22 1   
    45    19    45 1   
    46    20    28 1   
    47    20    46 1   
    48    23    25 1   
    49    24    25 2   
    50    27    47 1   
    51    28    48 1   
    52    32    51 1   
    53    33    51 1   
    54    34    51 1   
    55    49    52 1   
@<TRIPOS>SUBSTRUCTURE
     1 J4N         1 TEMP              0 ****  ****    0 ROOT
