@<TRIPOS>MOLECULE
J4O
   50    53     1     0     0
SMALL
abcg2


@<TRIPOS>ATOM
      1 C1          31.3590    31.7220    45.4990 c6         1 J4O       0.148100
      2 C10         25.9920    31.3880    41.9020 ca         1 J4O       0.046400
      3 C11         26.9800    32.1540    41.2810 ca         1 J4O      -0.024000
      4 C12         28.2210    32.2350    41.8750 ca         1 J4O      -0.158000
      5 C14         24.2210    30.3460    42.4760 cc         1 J4O       0.489400
      6 C16         22.8820    29.8030    42.5190 cc         1 J4O      -0.232900
      7 C17         21.7060    30.2810    41.9870 cd         1 J4O      -0.006300
      8 C18         20.6840    29.3430    42.3510 cd         1 J4O      -0.251600
      9 C19         21.2930    28.3280    43.0940 cc         1 J4O      -0.094300
     10 C2          30.0360    31.2050    44.9630 c6         1 J4O       0.153800
     11 C21         21.5640    31.5520    41.2120 c3         1 J4O      -0.010100
     12 C22         21.6360    31.3350    39.7020 c3         1 J4O      -0.077100
     13 C23         19.2700    29.4470    41.9950 c          1 J4O       0.608700
     14 C24         18.2810    28.5000    42.6290 c3         1 J4O      -0.194100
     15 C26         20.7920    27.0720    43.7170 c3         1 J4O      -0.037800
     16 C4          30.9380    31.4060    42.7530 c6         1 J4O       0.153800
     17 C5          32.2290    31.9150    43.3640 c6         1 J4O       0.148100
     18 C7          28.5330    31.5580    43.0800 ca         1 J4O       0.302000
     19 C8          27.5550    30.7850    43.7010 ca         1 J4O      -0.183000
     20 C9          26.3040    30.7290    43.0970 ca         1 J4O      -0.051200
     21 N13         25.1540    30.0730    43.4390 na         1 J4O      -0.327600
     22 N15         24.6940    31.1280    41.5380 nd         1 J4O      -0.548100
     23 N20         22.5970    28.6310    43.1800 na         1 J4O      -0.100000
     24 N3          29.8130    31.7190    43.6270 nh         1 J4O      -0.777400
     25 O25         18.8740    30.2870    41.2030 o          1 J4O      -0.536100
     26 O6          32.4360    31.3900    44.6550 os         1 J4O      -0.445000
     27 H1          31.5580    31.2790    46.4760 h1         1 J4O       0.053450
     28 H2          31.2930    32.8120    45.6290 h1         1 J4O       0.053450
     29 H3          26.7750    32.6880    40.3620 ha         1 J4O       0.131000
     30 H4          28.9750    32.8600    41.4140 ha         1 J4O       0.119000
     31 H5          29.2430    31.5490    45.6290 h1         1 J4O       0.046700
     32 H6          30.0340    30.1040    44.9890 h1         1 J4O       0.046700
     33 H7          22.3600    32.2370    41.5050 hc         1 J4O       0.057700
     34 H8          20.6220    32.0360    41.4670 hc         1 J4O       0.057700
     35 H9          21.5180    32.2800    39.1690 hc         1 J4O       0.036700
     36 H10         22.5990    30.9090    39.4210 hc         1 J4O       0.036700
     37 H11         20.8530    30.6600    39.3610 hc         1 J4O       0.036700
     38 H12         17.2690    28.7720    42.3350 hc         1 J4O       0.055033
     39 H13         18.4630    27.4720    42.3150 hc         1 J4O       0.055033
     40 H14         18.3480    28.5210    43.7170 hc         1 J4O       0.055033
     41 H15         20.3070    26.4240    42.9890 hc         1 J4O       0.052367
     42 H16         21.6160    26.5120    44.1580 hc         1 J4O       0.052367
     43 H17         20.0710    27.2720    44.5090 hc         1 J4O       0.052367
     44 H18         30.8110    31.8790    41.7800 h1         1 J4O       0.046700
     45 H19         31.0100    30.3210    42.5830 h1         1 J4O       0.046700
     46 H20         33.0740    31.6100    42.7450 h1         1 J4O       0.053450
     47 H21         32.2090    33.0140    43.3940 h1         1 J4O       0.053450
     48 H22         27.7460    30.2360    44.6120 ha         1 J4O       0.116000
     49 H23         25.0060    29.5630    44.2970 hn         1 J4O       0.348000
     50 H25         23.2770    28.0190    43.6060 hn         1 J4O       0.341000
@<TRIPOS>BOND
     1     1    10 1   
     2     1    26 1   
     3     1    27 1   
     4     1    28 1   
     5     2     3 ar  
     6     2    20 ar  
     7     2    22 1   
     8     3     4 ar  
     9     3    29 1   
    10     4    18 ar  
    11     4    30 1   
    12     5     6 1   
    13     5    21 1   
    14     5    22 2   
    15     6     7 2   
    16     6    23 1   
    17     7     8 1   
    18     7    11 1   
    19     8     9 2   
    20     8    13 1   
    21     9    15 1   
    22     9    23 1   
    23    10    24 1   
    24    10    31 1   
    25    10    32 1   
    26    11    12 1   
    27    11    33 1   
    28    11    34 1   
    29    12    35 1   
    30    12    36 1   
    31    12    37 1   
    32    13    14 1   
    33    13    25 2   
    34    14    38 1   
    35    14    39 1   
    36    14    40 1   
    37    15    41 1   
    38    15    42 1   
    39    15    43 1   
    40    16    17 1   
    41    16    24 1   
    42    16    44 1   
    43    16    45 1   
    44    17    26 1   
    45    17    46 1   
    46    17    47 1   
    47    18    19 ar  
    48    18    24 1   
    49    19    20 ar  
    50    19    48 1   
    51    20    21 1   
    52    21    49 1   
    53    23    50 1   
@<TRIPOS>SUBSTRUCTURE
     1 J4O         1 TEMP              0 ****  ****    0 ROOT
