@<TRIPOS>MOLECULE
J4O
   50    53     1     0     0
SMALL
No Charge or Current Charge


@<TRIPOS>ATOM
      1 C1          31.5850    31.5190    45.4630 c6         1 J4O       0.148100
      2 C10         25.8980    31.6800    42.1630 ca         1 J4O       0.046400
      3 C11         26.8280    32.5990    41.6600 ca         1 J4O      -0.024000
      4 C12         28.1540    32.5430    42.1450 ca         1 J4O      -0.158000
      5 C14         24.1230    30.5220    42.5980 cc         1 J4O       0.489400
      6 C16         22.8030    29.9280    42.6700 cc         1 J4O      -0.232900
      7 C17         21.6610    30.2840    41.9860 cd         1 J4O      -0.006300
      8 C18         20.6280    29.3550    42.3620 cd         1 J4O      -0.251600
      9 C19         21.1580    28.4710    43.2960 cc         1 J4O      -0.094300
     10 C2          30.2060    31.0110    44.9440 c6         1 J4O       0.153800
     11 C21         21.5170    31.4400    41.0110 c3         1 J4O      -0.010100
     12 C22         21.7960    31.0250    39.5530 c3         1 J4O      -0.077100
     13 C23         19.2130    29.3320    41.8280 c          1 J4O       0.608700
     14 C24         18.1810    28.3200    42.3320 c3         1 J4O      -0.194100
     15 C26         20.5850    27.2930    44.0480 c3         1 J4O      -0.037800
     16 C4          31.0130    31.4670    42.6100 c6         1 J4O       0.153800
     17 C5          32.3590    31.9540    43.2270 c6         1 J4O       0.148100
     18 C7          28.5390    31.5820    43.1150 ca         1 J4O       0.302000
     19 C8          27.5720    30.6720    43.6020 ca         1 J4O      -0.183000
     20 C9          26.2710    30.7610    43.0950 ca         1 J4O      -0.051200
     21 N13         25.1670    30.0220    43.3790 na         1 J4O      -0.327600
     22 N15         24.5530    31.5470    41.8350 nd         1 J4O      -0.548100
     23 N20         22.4850    28.8400    43.4740 na         1 J4O      -0.100000
     24 N3          29.8750    31.5510    43.5840 nh         1 J4O      -0.777400
     25 O25         18.8370    30.1190    40.9700 o          1 J4O      -0.536100
     26 O6          32.6220    31.2830    44.4820 os         1 J4O      -0.445000
     27 H1          31.8470    31.0000    46.3960 h1         1 J4O       0.053450
     28 H2          31.5290    32.5960    45.6780 h1         1 J4O       0.053450
     29 H3          26.5330    33.3370    40.9180 ha         1 J4O       0.131000
     30 H4          28.8810    33.2580    41.7750 ha         1 J4O       0.119000
     31 H5          29.4350    31.3090    45.6700 h1         1 J4O       0.046700
     32 H6          30.2230    29.9110    44.9170 h1         1 J4O       0.046700
     33 H7          22.1810    32.2660    41.2810 hc         1 J4O       0.057700
     34 H8          20.5200    31.8860    41.0760 hc         1 J4O       0.057700
     35 H9          21.6800    31.8830    38.8810 hc         1 J4O       0.036700
     36 H10         22.8190    30.6440    39.4510 hc         1 J4O       0.036700
     37 H11         21.1020    30.2390    39.2330 hc         1 J4O       0.036700
     38 H12         17.2020    28.4550    41.8600 hc         1 J4O       0.055033
     39 H13         18.5530    27.3060    42.1590 hc         1 J4O       0.055033
     40 H14         18.1010    28.3930    43.4210 hc         1 J4O       0.055033
     41 H15         20.2490    26.5040    43.3670 hc         1 J4O       0.052367
     42 H16         21.3390    26.8420    44.7030 hc         1 J4O       0.052367
     43 H17         19.7500    27.5920    44.6920 hc         1 J4O       0.052367
     44 H18         30.8090    32.0700    41.7140 h1         1 J4O       0.046700
     45 H19         31.1360    30.4260    42.2750 h1         1 J4O       0.046700
     46 H20         33.1830    31.7520    42.5300 h1         1 J4O       0.053450
     47 H21         32.3180    33.0390    43.4000 h1         1 J4O       0.053450
     48 H22         27.8240    29.9150    44.3390 ha         1 J4O       0.116000
     49 H23         25.1100    29.2570    44.0340 hn         1 J4O       0.348000
     50 H25         23.1250    28.3600    44.1000 hn         1 J4O       0.341000
@<TRIPOS>BOND
     1     1    10 1   
     2     1    26 1   
     3     1    27 1   
     4     1    28 1   
     5     2     3 ar  
     6     2    20 ar  
     7     2    22 1   
     8     3     4 ar  
     9     3    29 1   
    10     4    18 ar  
    11     4    30 1   
    12     5     6 1   
    13     5    21 1   
    14     5    22 2   
    15     6     7 2   
    16     6    23 1   
    17     7     8 1   
    18     7    11 1   
    19     8     9 2   
    20     8    13 1   
    21     9    15 1   
    22     9    23 1   
    23    10    24 1   
    24    10    31 1   
    25    10    32 1   
    26    11    12 1   
    27    11    33 1   
    28    11    34 1   
    29    12    35 1   
    30    12    36 1   
    31    12    37 1   
    32    13    14 1   
    33    13    25 2   
    34    14    38 1   
    35    14    39 1   
    36    14    40 1   
    37    15    41 1   
    38    15    42 1   
    39    15    43 1   
    40    16    17 1   
    41    16    24 1   
    42    16    44 1   
    43    16    45 1   
    44    17    26 1   
    45    17    46 1   
    46    17    47 1   
    47    18    19 ar  
    48    18    24 1   
    49    19    20 ar  
    50    19    48 1   
    51    20    21 1   
    52    21    49 1   
    53    23    50 1   
@<TRIPOS>SUBSTRUCTURE
     1 J4O         1 TEMP              0 ****  ****    0 ROOT
