@<TRIPOS>MOLECULE
J4P
   50    52     1     0     0
SMALL
bcc


@<TRIPOS>ATOM
      1 N           -2.7060    -0.2000    -0.2840 ns         1 J4P      -0.566900
      2 CA          -1.8570    -1.1930     0.3210 c3         1 J4P       0.090000
      3 C           -2.0090    -2.5310    -0.4170 c          1 J4P       0.671100
      4 O           -2.1020    -2.6060    -1.6240 o          1 J4P      -0.559100
      5 CAG          1.6820    -0.3320     1.3780 ca         1 J4P      -0.113500
      6 CAH          1.5280    -0.0780    -0.9980 ca         1 J4P      -0.113500
      7 CAI          0.3480    -0.7050     1.4220 ca         1 J4P      -0.110000
      8 CAJ          0.1960    -0.4520    -0.9540 ca         1 J4P      -0.110000
      9 CAK          4.6350    -0.1770     1.0020 ca         1 J4P      -0.157500
     10 CAL          4.1490     1.3330    -0.8080 ca         1 J4P      -0.157500
     11 CAM         -7.8440     2.6290     0.1700 c5         1 J4P      -0.078400
     12 CAN         -6.9650     2.6200     1.4400 c5         1 J4P      -0.078400
     13 CAO         -6.9200     2.1580    -0.9510 c5         1 J4P      -0.077900
     14 CAP         -5.7180     1.7840     1.0830 c5         1 J4P      -0.077900
     15 CAT         -4.0330    -0.3920    -0.3830 c          1 J4P       0.671100
     16 CAV          5.9570     0.2090     0.9500 ca         1 J4P       0.127900
     17 CAW          5.4770     1.6980    -0.8400 ca         1 J4P       0.127900
     18 CAX          2.2940    -0.0130     0.1670 cp         1 J4P      -0.033000
     19 CAY          3.7130     0.3860     0.1190 cp         1 J4P       0.007000
     20 CAZ         -0.4100    -0.7690     0.2600 ca         1 J4P      -0.104300
     21 CBA          6.3970     1.1470     0.0330 ca         1 J4P       0.054900
     22 CBB         -6.0410     1.1190    -0.2600 c5         1 J4P      -0.063700
     23 FAE          5.9030     2.6080    -1.7160 f          1 J4P      -0.117900
     24 FAF          7.6760     1.5140    -0.0050 f          1 J4P      -0.104900
     25 NAR         -1.9160    -3.5870     0.4080 ns         1 J4P      -0.441400
     26 OAA         -4.5610    -1.4070     0.0500 o          1 J4P      -0.601100
     27 OAC         -2.1070    -4.8430    -0.0800 oh         1 J4P      -0.382100
     28 H1          -2.2920     0.6520    -0.6260 hn         1 J4P       0.327500
     29 H2          -2.1330    -1.3250     1.3730 h1         1 J4P       0.065700
     30 H3           2.2400    -0.2660     2.3040 ha         1 J4P       0.139500
     31 H4           1.9760     0.1420    -1.9580 ha         1 J4P       0.139500
     32 H5          -0.1060    -0.9350     2.3780 ha         1 J4P       0.145500
     33 H6          -0.3650    -0.5100    -1.8790 ha         1 J4P       0.145500
     34 H7           4.3390    -0.9310     1.7200 ha         1 J4P       0.160000
     35 H8           3.4600     1.8100    -1.4920 ha         1 J4P       0.160000
     36 H10         -8.2880     3.6050    -0.0270 hc         1 J4P       0.042200
     37 H11         -6.6800     3.6320     1.7290 hc         1 J4P       0.042200
     38 H12         -7.5050     2.1960     2.2870 hc         1 J4P       0.042200
     39 H13         -7.4580     1.7540    -1.8110 hc         1 J4P       0.041950
     40 H14         -6.3030     2.9880    -1.3130 hc         1 J4P       0.041950
     41 H15         -4.8480     2.4370     0.9630 hc         1 J4P       0.041950
     42 H16         -5.4640     1.0560     1.8560 hc         1 J4P       0.041950
     43 H19         -6.6510     0.2280    -0.0770 hc         1 J4P       0.074700
     44 H20         -2.0450    -3.5010     1.4060 hn         1 J4P       0.335500
     45 H21         -1.2260    -5.2070    -0.2350 ho         1 J4P       0.405000
     46 FAD          6.8470    -0.3250     1.7850 f          1 J4P      -0.117900
     47 CAQ         -4.8140     0.7090    -1.0610 c3         1 J4P      -0.142400
     48 H9          -8.6680     1.9200     0.2800 hc         1 J4P       0.042200
     49 H17         -4.1810     1.5810    -1.2470 hc         1 J4P       0.061700
     50 H18         -5.1190     0.3280    -2.0410 hc         1 J4P       0.061700
@<TRIPOS>BOND
     1     1     2 1   
     2     1    15 1   
     3     1    28 1   
     4     2     3 1   
     5     2    20 1   
     6     2    29 1   
     7     3     4 2   
     8     3    25 1   
     9     5     7 ar  
    10     5    18 ar  
    11     5    30 1   
    12     6     8 ar  
    13     6    18 ar  
    14     6    31 1   
    15     7    20 ar  
    16     7    32 1   
    17     8    20 ar  
    18     8    33 1   
    19     9    16 ar  
    20     9    19 ar  
    21     9    34 1   
    22    10    17 ar  
    23    10    19 ar  
    24    10    35 1   
    25    11    12 1   
    26    11    13 1   
    27    11    36 1   
    28    11    48 1   
    29    12    14 1   
    30    12    37 1   
    31    12    38 1   
    32    13    22 1   
    33    13    39 1   
    34    13    40 1   
    35    14    22 1   
    36    14    41 1   
    37    14    42 1   
    38    15    26 2   
    39    15    47 1   
    40    16    21 ar  
    41    16    46 1   
    42    17    21 ar  
    43    17    23 1   
    44    18    19 1   
    45    21    24 1   
    46    22    43 1   
    47    22    47 1   
    48    25    27 1   
    49    25    44 1   
    50    27    45 1   
    51    47    49 1   
    52    47    50 1   
@<TRIPOS>SUBSTRUCTURE
     1 J4P         1 TEMP              0 ****  ****    0 ROOT
