@<TRIPOS>MOLECULE
J4P
   50    52     1     0     0
SMALL
No Charge or Current Charge


@<TRIPOS>ATOM
      1 N           -3.1520    -0.9740    -0.6170 ns         1 J4P      -0.499900
      2 CA          -2.1730    -1.9240    -0.0550 c3         1 J4P       0.090000
      3 C           -2.1050    -3.2480    -0.8800 c          1 J4P       0.604100
      4 O           -2.6770    -3.4080    -1.9550 o          1 J4P      -0.559100
      5 CAG          0.9740    -0.2990     1.4270 ca         1 J4P      -0.095500
      6 CAH          1.1940    -0.3210    -0.9880 ca         1 J4P      -0.095500
      7 CAI         -0.2810    -0.9220     1.3200 ca         1 J4P      -0.092000
      8 CAJ         -0.0600    -0.9450    -1.0970 ca         1 J4P      -0.092000
      9 CAK          3.9500     0.3870     1.4710 ca         1 J4P      -0.139500
     10 CAL          3.5120     1.6240    -0.5730 ca         1 J4P      -0.139500
     11 CAM         -6.5870     3.4290     0.4840 c5         1 J4P      -0.078400
     12 CAN         -5.2810     3.1950     1.3120 c5         1 J4P      -0.078400
     13 CAO         -6.5020     2.4090    -0.6860 c5         1 J4P      -0.077900
     14 CAP         -4.5470     2.0350     0.5790 c5         1 J4P      -0.077900
     15 CAT         -4.4960    -0.9780    -0.3270 c          1 J4P       0.604100
     16 CAV          5.2040     1.0110     1.5790 ca         1 J4P       0.163000
     17 CAW          4.7650     2.2480    -0.4630 ca         1 J4P       0.163000
     18 CAX          1.7400     0.0150     0.2770 cp         1 J4P      -0.033000
     19 CAY          3.0760     0.6800     0.3920 cp         1 J4P       0.007000
     20 CAZ         -0.8060    -1.2530     0.0570 ca         1 J4P      -0.104300
     21 CBA          5.6170     1.9440     0.6130 ca         1 J4P       0.090000
     22 CBB         -5.7280     1.2380    -0.0320 c5         1 J4P      -0.063700
     23 FAE          5.1460     3.1470    -1.3990 f          1 J4P      -0.153000
     24 FAF          6.8260     2.5460     0.7180 f          1 J4P      -0.140000
     25 NAR         -1.3050    -4.2420    -0.3180 ns         1 J4P      -0.374400
     26 OAA         -5.0010    -1.8120     0.4110 o          1 J4P      -0.601100
     27 OAC         -1.3360    -5.6010    -0.8190 oh         1 J4P      -0.421100
     28 H1          -2.8210    -0.2520    -1.2440 hn         1 J4P       0.327500
     29 H2          -2.5050    -2.2060     0.9530 h1         1 J4P       0.065700
     30 H3           1.3490    -0.0420     2.4150 ha         1 J4P       0.121500
     31 H4           1.7550    -0.1090    -1.8950 ha         1 J4P       0.121500
     32 H5          -0.8460    -1.1400     2.2240 ha         1 J4P       0.127500
     33 H6          -0.4490    -1.1890    -2.0840 ha         1 J4P       0.127500
     34 H7           3.6620    -0.3400     2.2250 ha         1 J4P       0.142000
     35 H8           2.8680     1.8880    -1.4070 ha         1 J4P       0.142000
     36 H10         -6.6650     4.4590     0.1170 hc         1 J4P       0.042200
     37 H11         -4.6580     4.0950     1.3650 hc         1 J4P       0.042200
     38 H12         -5.5240     2.9160     2.3440 hc         1 J4P       0.042200
     39 H13         -7.4930     2.1080    -1.0460 hc         1 J4P       0.041950
     40 H14         -5.9590     2.8270    -1.5430 hc         1 J4P       0.041950
     41 H15         -3.8720     2.4180    -0.1960 hc         1 J4P       0.041950
     42 H16         -3.9410     1.4340     1.2670 hc         1 J4P       0.041950
     43 H19         -6.3310     0.7670     0.7560 hc         1 J4P       0.074700
     44 H20         -0.9460    -4.1180     0.6280 hn         1 J4P       0.335500
     45 H21         -0.3840    -5.8230    -0.9480 ho         1 J4P       0.444000
     46 FAD          6.0120     0.7050     2.6190 f          1 J4P      -0.153000
     47 CAQ         -5.3150     0.1170    -1.0190 c3         1 J4P      -0.142400
     48 H9          -7.4730     3.2440     1.1020 hc         1 J4P       0.042200
     49 H17         -4.7280     0.5580    -1.8340 hc         1 J4P       0.061700
     50 H18         -6.2210    -0.3410    -1.4330 hc         1 J4P       0.061700
@<TRIPOS>BOND
     1     1     2 1   
     2     1    15 1   
     3     1    28 1   
     4     2     3 1   
     5     2    20 1   
     6     2    29 1   
     7     3     4 2   
     8     3    25 1   
     9     5     7 ar  
    10     5    18 ar  
    11     5    30 1   
    12     6     8 ar  
    13     6    18 ar  
    14     6    31 1   
    15     7    20 ar  
    16     7    32 1   
    17     8    20 ar  
    18     8    33 1   
    19     9    16 ar  
    20     9    19 ar  
    21     9    34 1   
    22    10    17 ar  
    23    10    19 ar  
    24    10    35 1   
    25    11    12 1   
    26    11    13 1   
    27    11    36 1   
    28    11    48 1   
    29    12    14 1   
    30    12    37 1   
    31    12    38 1   
    32    13    22 1   
    33    13    39 1   
    34    13    40 1   
    35    14    22 1   
    36    14    41 1   
    37    14    42 1   
    38    15    26 2   
    39    15    47 1   
    40    16    21 ar  
    41    16    46 1   
    42    17    21 ar  
    43    17    23 1   
    44    18    19 1   
    45    21    24 1   
    46    22    43 1   
    47    22    47 1   
    48    25    27 1   
    49    25    44 1   
    50    27    45 1   
    51    47    49 1   
    52    47    50 1   
@<TRIPOS>SUBSTRUCTURE
     1 J4P         1 TEMP              0 ****  ****    0 ROOT
