@<TRIPOS>MOLECULE
J4Q
   24    25     1     0     0
SMALL
bcc


@<TRIPOS>ATOM
      1 N1          -2.3250     1.2590     0.8660 nc         1 J4Q      -0.577000
      2 N3           2.3650     1.4380    -0.1360 nc         1 J4Q      -0.634000
      3 C4          -0.7410     2.4080    -0.2080 cd         1 J4Q      -0.199600
      4 C5           0.4330     0.5620    -1.3940 c3         1 J4Q       0.027000
      5 C6           1.7040     0.3520    -0.6360 cc         1 J4Q       0.294600
      6 C7           2.2960    -0.8470    -0.3910 cd         1 J4Q      -0.152400
      7 C8           3.4420     1.0820     0.4840 cd         1 J4Q       0.407300
      8 C1          -2.9770    -1.4260    -1.3870 c3         1 J4Q      -0.232300
      9 S1          -1.9720    -1.2780     0.0690 sy         1 J4Q       1.069900
     10 O1          -2.7870    -1.5760     1.2360 o          1 J4Q      -0.584800
     11 O2          -0.7340    -2.0210    -0.1430 o          1 J4Q      -0.584800
     12 C2          -1.5940     0.4460     0.1510 cd         1 J4Q       0.197400
     13 C3          -1.7990     2.4910     0.6580 cc         1 J4Q       0.278200
     14 N2          -0.6210     1.0940    -0.5380 na         1 J4Q      -0.128900
     15 S2           3.7370    -0.6110     0.4970 ss         1 J4Q      -0.144300
     16 H2          -0.0760     3.1550    -0.6050 h4         1 J4Q       0.189000
     17 H3           0.5880     1.2860    -2.1920 h1         1 J4Q       0.076200
     18 H4           0.1000    -0.3610    -1.8590 h1         1 J4Q       0.076200
     19 H6           1.9590    -1.8300    -0.6770 h4         1 J4Q       0.202000
     20 H8           4.1250     1.7720     0.9590 h5         1 J4Q       0.056100
     21 H10         -3.8630    -0.8050    -1.2760 h1         1 J4Q       0.105033
     22 H11         -2.4050    -1.1210    -2.2600 h1         1 J4Q       0.105033
     23 H12         -3.2620    -2.4740    -1.4790 h1         1 J4Q       0.105033
     24 H13         -2.1990     3.3720     1.1340 h4         1 J4Q       0.046100
@<TRIPOS>BOND
     1     1    12 2   
     2     1    13 1   
     3     2     5 1   
     4     2     7 2   
     5     3    13 2   
     6     3    14 1   
     7     3    16 1   
     8     4     5 1   
     9     4    14 1   
    10     4    17 1   
    11     4    18 1   
    12     5     6 2   
    13     6    15 1   
    14     6    19 1   
    15     7    15 1   
    16     7    20 1   
    17     8     9 1   
    18     8    21 1   
    19     8    22 1   
    20     8    23 1   
    21     9    10 2   
    22     9    11 2   
    23     9    12 1   
    24    12    14 1   
    25    13    24 1   
@<TRIPOS>SUBSTRUCTURE
     1 J4Q         1 TEMP              0 ****  ****    0 ROOT
