@<TRIPOS>MOLECULE
J4Q
   24    25     1     0     0
SMALL
No Charge or Current Charge


@<TRIPOS>ATOM
      1 N1          -2.4500     1.2590     0.9640 nc         1 J4Q      -0.577000
      2 N3           2.6600     1.4110    -0.7860 nc         1 J4Q      -0.634000
      3 C4          -0.7170     2.3890     0.0760 cd         1 J4Q      -0.167000
      4 C5           0.3820     0.5410    -1.2620 c3         1 J4Q       0.056300
      5 C6           1.7350     0.4110    -0.6080 cc         1 J4Q       0.229300
      6 C7           2.1440    -0.6390     0.1750 cd         1 J4Q      -0.214000
      7 C8           3.7830     1.1240    -0.1340 cd         1 J4Q       0.407300
      8 C1          -2.8930    -1.4500    -1.6610 c3         1 J4Q      -0.343100
      9 S1          -2.1600    -1.3760    -0.0190 sy         1 J4Q       1.039100
     10 O1          -3.2250    -1.7690     0.9180 o          1 J4Q      -0.514000
     11 O2          -0.9210    -2.1640    -0.1080 o          1 J4Q      -0.514000
     12 C2          -1.7420     0.3960     0.2230 cd         1 J4Q       0.197400
     13 C3          -1.8210     2.4650     0.8750 cc         1 J4Q       0.212900
     14 N2          -0.6560     1.0740    -0.3530 na         1 J4Q      -0.107500
     15 S2           3.7830    -0.4000     0.7470 ss         1 J4Q       0.000600
     16 H2           0.0020     3.1480    -0.2070 h4         1 J4Q       0.171000
     17 H3           0.4670     1.2220    -2.1170 h1         1 J4Q       0.076200
     18 H4           0.0820    -0.4330    -1.6630 h1         1 J4Q       0.076200
     19 H6           1.5870    -1.5280     0.4460 h4         1 J4Q       0.184000
     20 H8           4.6650     1.7520    -0.1150 h5         1 J4Q       0.056100
     21 H10         -3.7800    -0.8080    -1.6680 h1         1 J4Q       0.105033
     22 H11         -2.1540    -1.0960    -2.3880 h1         1 J4Q       0.105033
     23 H12         -3.1670    -2.4900    -1.8640 h1         1 J4Q       0.105033
     24 H13         -2.2110     3.3270     1.4000 h4         1 J4Q       0.046100
@<TRIPOS>BOND
     1     1    12 2   
     2     1    13 1   
     3     2     5 1   
     4     2     7 2   
     5     3    13 2   
     6     3    14 1   
     7     3    16 1   
     8     4     5 1   
     9     4    14 1   
    10     4    17 1   
    11     4    18 1   
    12     5     6 2   
    13     6    15 1   
    14     6    19 1   
    15     7    15 1   
    16     7    20 1   
    17     8     9 1   
    18     8    21 1   
    19     8    22 1   
    20     8    23 1   
    21     9    10 2   
    22     9    11 2   
    23     9    12 1   
    24    12    14 1   
    25    13    24 1   
@<TRIPOS>SUBSTRUCTURE
     1 J4Q         1 TEMP              0 ****  ****    0 ROOT
