@<TRIPOS>MOLECULE
J4S
   44    46     1     0     0
SMALL
abcg2


@<TRIPOS>ATOM
      1 N           -3.1370    -0.4130    -0.0300 ns         1 J4S      -0.503900
      2 CA          -2.3850     0.7720    -0.3390 c3         1 J4S       0.092000
      3 C           -2.7060     1.8890     0.6630 c          1 J4S       0.610100
      4 O           -2.8640     1.6830     1.8490 o          1 J4S      -0.562100
      5 CAA          1.2900     0.5850    -1.2670 ca         1 J4S      -0.094500
      6 CAB         -0.0750     0.8180    -1.3330 ca         1 J4S      -0.091000
      7 CAC         -0.9020     0.4930    -0.2660 ca         1 J4S      -0.108300
      8 CAD         -0.3360    -0.0700     0.8760 ca         1 J4S      -0.091000
      9 CAE          1.0260    -0.3070     0.9400 ca         1 J4S      -0.094500
     10 CAF          1.8610     0.0180    -0.1300 cp         1 J4S      -0.032000
     11 CAG          3.3130    -0.2350    -0.0580 cp         1 J4S       0.005000
     12 CAH          4.0030    -0.0480     1.1390 ca         1 J4S      -0.138500
     13 CAI          5.3590    -0.2870     1.1900 ca         1 J4S       0.161500
     14 CAJ          6.0580    -0.7100     0.0740 ca         1 J4S       0.090000
     15 CAK          5.3650    -0.8940    -1.1090 ca         1 J4S       0.161500
     16 CAL          4.0090    -0.6630    -1.1890 ca         1 J4S      -0.138500
     17 CAS         -4.4820    -0.3980     0.0380 c          1 J4S       0.606100
     18 CAT         -5.1180    -1.7180     0.4140 c3         1 J4S      -0.123400
     19 CAV         -6.5800    -1.7860     0.0730 cx         1 J4S      -0.108700
     20 CAZ         -7.1930    -3.1170    -0.2360 cx         1 J4S      -0.130400
     21 CBA         -7.0020    -2.1050    -1.3270 cx         1 J4S      -0.130400
     22 FAM          6.0400    -1.3140    -2.1790 f          1 J4S      -0.153500
     23 FAN          7.3680    -0.9340     0.1370 f          1 J4S      -0.140000
     24 FAO          6.0330    -0.1010     2.3250 f          1 J4S      -0.153500
     25 NAW         -2.7350     3.1010     0.0900 ns         1 J4S      -0.380400
     26 OAU         -5.1210     0.6230    -0.1650 o          1 J4S      -0.595100
     27 OAX         -2.7510     4.2210     0.8630 oh         1 J4S      -0.422100
     28 H1          -2.6400    -1.2810     0.0930 hn         1 J4S       0.325500
     29 H2          -2.6230     1.1150    -1.3520 h1         1 J4S       0.064700
     30 H4          -0.4950     1.2580    -2.2290 ha         1 J4S       0.127000
     31 H5          -0.9560    -0.3300     1.7240 ha         1 J4S       0.127000
     32 H6           1.4360    -0.7670     1.8300 ha         1 J4S       0.122000
     33 H7           3.4990     0.3040     2.0300 ha         1 J4S       0.143500
     34 H8           3.4990    -0.8410    -2.1270 ha         1 J4S       0.143500
     35 H9          -4.5750    -2.5380    -0.0650 hc         1 J4S       0.061200
     36 H10         -4.9740    -1.8600     1.4910 hc         1 J4S       0.061200
     37 H11         -7.2090    -1.0890     0.6140 hc         1 J4S       0.095700
     38 H12         -6.5460    -3.9870    -0.2310 hc         1 J4S       0.070950
     39 H13         -8.1990    -3.3130     0.1130 hc         1 J4S       0.070950
     40 H14         -7.8780    -1.6080    -1.7240 hc         1 J4S       0.070950
     41 H15         -6.2280    -2.2890    -2.0620 hc         1 J4S       0.070950
     42 H16         -2.5110     3.2560    -0.8820 hn         1 J4S       0.336500
     43 H17         -3.6750     4.4960     0.9210 ho         1 J4S       0.448000
     44 H3           1.9130     0.8650    -2.1070 ha         1 J4S       0.122000
@<TRIPOS>BOND
     1     1     2 1   
     2     1    17 1   
     3     1    28 1   
     4     2     3 1   
     5     2     7 1   
     6     2    29 1   
     7     3     4 2   
     8     3    25 1   
     9     5     6 ar  
    10     5    10 ar  
    11     5    44 1   
    12     6     7 ar  
    13     6    30 1   
    14     7     8 ar  
    15     8     9 ar  
    16     8    31 1   
    17     9    10 ar  
    18     9    32 1   
    19    10    11 1   
    20    11    12 ar  
    21    11    16 ar  
    22    12    13 ar  
    23    12    33 1   
    24    13    14 ar  
    25    13    24 1   
    26    14    15 ar  
    27    14    23 1   
    28    15    16 ar  
    29    15    22 1   
    30    16    34 1   
    31    17    18 1   
    32    17    26 2   
    33    18    19 1   
    34    18    35 1   
    35    18    36 1   
    36    19    20 1   
    37    19    21 1   
    38    19    37 1   
    39    20    21 1   
    40    20    38 1   
    41    20    39 1   
    42    21    40 1   
    43    21    41 1   
    44    25    27 1   
    45    25    42 1   
    46    27    43 1   
@<TRIPOS>SUBSTRUCTURE
     1 J4S         1 TEMP              0 ****  ****    0 ROOT
