@<TRIPOS>MOLECULE
J4S
   44    46     1     0     0
SMALL
No Charge or Current Charge


@<TRIPOS>ATOM
      1 N           -3.6510     0.1380     0.4880 ns         1 J4S      -0.503900
      2 CA          -2.7910     1.3050     0.2120 c3         1 J4S       0.092000
      3 C           -2.9430     2.4160     1.2990 c          1 J4S       0.610100
      4 O           -3.5980     2.2740     2.3290 o          1 J4S      -0.562100
      5 CAA          0.6190     0.4680    -1.3430 ca         1 J4S      -0.094500
      6 CAB         -0.7150     0.8850    -1.2000 ca         1 J4S      -0.091000
      7 CAC         -1.3390     0.8550     0.0610 ca         1 J4S      -0.108300
      8 CAD         -0.6100     0.3960     1.1760 ca         1 J4S      -0.091000
      9 CAE          0.7240    -0.0200     1.0300 ca         1 J4S      -0.094500
     10 CAF          1.3680     0.0080    -0.2310 cp         1 J4S      -0.032000
     11 CAG          2.7900    -0.4370    -0.3850 cp         1 J4S       0.005000
     12 CAH          3.7470    -0.1990     0.6350 ca         1 J4S      -0.138500
     13 CAI          5.0800    -0.6160     0.4890 ca         1 J4S       0.161500
     14 CAJ          5.4920    -1.2820    -0.6770 ca         1 J4S       0.090000
     15 CAK          4.5590    -1.5270    -1.6990 ca         1 J4S       0.161500
     16 CAL          3.2250    -1.1100    -1.5560 ca         1 J4S      -0.138500
     17 CAS         -4.9820     0.0540     0.1510 c          1 J4S       0.606100
     18 CAT         -5.6650    -1.2690     0.5170 c3         1 J4S      -0.123400
     19 CAV         -5.8040    -2.1720    -0.7080 cx         1 J4S      -0.108700
     20 CAZ         -5.7600    -3.6770    -0.5760 cx         1 J4S      -0.130400
     21 CBA         -4.6150    -2.9440    -1.2340 cx         1 J4S      -0.130400
     22 FAM          4.9380    -2.1700    -2.8270 f          1 J4S      -0.153500
     23 FAN          6.7790    -1.6840    -0.8160 f          1 J4S      -0.140000
     24 FAO          5.9670    -0.3680     1.4810 f          1 J4S      -0.153500
     25 NAW         -2.2590     3.5980     1.0180 ns         1 J4S      -0.380400
     26 OAU         -5.5690     0.9670    -0.4150 o          1 J4S      -0.595100
     27 OAX         -2.0740     4.6140     2.0350 oh         1 J4S      -0.422100
     28 H1          -3.2430    -0.6670     0.9460 hn         1 J4S       0.325500
     29 H2          -3.1150     1.7550    -0.7350 h1         1 J4S       0.064700
     30 H4          -1.2620     1.2320    -2.0740 ha         1 J4S       0.127000
     31 H5          -1.0760     0.3560     2.1590 ha         1 J4S       0.127000
     32 H6           1.2580    -0.3810     1.9060 ha         1 J4S       0.122000
     33 H7           3.4590     0.3260     1.5420 ha         1 J4S       0.143500
     34 H8           2.5220    -1.3250    -2.3550 ha         1 J4S       0.143500
     35 H9          -5.0730    -1.7880     1.2810 hc         1 J4S       0.061200
     36 H10         -6.6650    -1.0530     0.9120 hc         1 J4S       0.061200
     37 H11         -6.4830    -1.7630    -1.4540 hc         1 J4S       0.095700
     38 H12         -5.5890    -4.1020     0.4100 hc         1 J4S       0.070950
     39 H13         -6.4220    -4.2600    -1.2130 hc         1 J4S       0.070950
     40 H14         -4.5080    -3.0350    -2.3120 hc         1 J4S       0.070950
     41 H15         -3.6760    -2.8790    -0.6880 hc         1 J4S       0.070950
     42 H16         -1.5970     3.6120     0.2430 hn         1 J4S       0.336500
     43 H17         -2.3440     5.4490     1.5830 ho         1 J4S       0.448000
     44 H3           1.0800     0.5150    -2.3260 ha         1 J4S       0.122000
@<TRIPOS>BOND
     1     1     2 1   
     2     1    17 1   
     3     1    28 1   
     4     2     3 1   
     5     2     7 1   
     6     2    29 1   
     7     3     4 2   
     8     3    25 1   
     9     5     6 ar  
    10     5    10 ar  
    11     5    44 1   
    12     6     7 ar  
    13     6    30 1   
    14     7     8 ar  
    15     8     9 ar  
    16     8    31 1   
    17     9    10 ar  
    18     9    32 1   
    19    10    11 1   
    20    11    12 ar  
    21    11    16 ar  
    22    12    13 ar  
    23    12    33 1   
    24    13    14 ar  
    25    13    24 1   
    26    14    15 ar  
    27    14    23 1   
    28    15    16 ar  
    29    15    22 1   
    30    16    34 1   
    31    17    18 1   
    32    17    26 2   
    33    18    19 1   
    34    18    35 1   
    35    18    36 1   
    36    19    20 1   
    37    19    21 1   
    38    19    37 1   
    39    20    21 1   
    40    20    38 1   
    41    20    39 1   
    42    21    40 1   
    43    21    41 1   
    44    25    27 1   
    45    25    42 1   
    46    27    43 1   
@<TRIPOS>SUBSTRUCTURE
     1 J4S         1 TEMP              0 ****  ****    0 ROOT
