@<TRIPOS>MOLECULE
J4U
  173   182     1     0     0
SMALL
bcc


@<TRIPOS>ATOM
      1 C13        161.3550   172.6340   181.6030 c2         1 J4U      -0.105400
      2 C15        161.3240   170.3310   180.6690 c6         1 J4U      -0.035200
      3 C16        161.3740   173.5600   182.7890 c6         1 J4U      -0.072200
      4 C17        160.9010   174.9750   182.4770 c6         1 J4U       0.156100
      5 C01        162.7990   170.5530   175.8950 c3         1 J4U      -0.081100
      6 C03        160.5350   169.3840   176.4660 c5         1 J4U      -0.085700
      7 C04        161.1300   168.1560   177.1320 c5         1 J4U       0.140100
      8 C06        161.9760   170.2040   178.2090 c5         1 J4U      -0.058700
      9 C07        161.0400   170.8400   179.2450 c6         1 J4U      -0.042700
     10 C08        161.0370   172.3890   179.1390 c6         1 J4U      -0.044700
     11 C10        160.8480   171.9050   176.6790 c6         1 J4U      -0.067400
     12 C18        161.7130   175.5090   181.3150 c6         1 J4U      -0.075400
     13 C19        161.4790   174.6500   180.0830 c6         1 J4U      -0.068400
     14 C02        161.5330   170.5300   176.7560 c5         1 J4U      -0.029000
     15 C05        162.0370   168.6610   178.2520 c5         1 J4U      -0.078400
     16 C09        161.4110   172.8540   177.7260 c6         1 J4U      -0.072400
     17 C1         167.3440   169.5160   186.6690 c6         1 J4U       0.314900
     18 C11        161.8100   173.1510   180.2490 c6         1 J4U       0.000200
     19 C12        163.3330   172.9550   180.1750 c3         1 J4U      -0.078100
     20 C14        161.0920   171.3360   181.7520 c2         1 J4U      -0.187200
     21 C1B        163.0590   172.5440   187.4540 c6         1 J4U       0.341900
     22 C1C        164.5710   177.4410   187.3570 c6         1 J4U       0.341900
     23 C2         168.7990   169.7190   186.1870 c6         1 J4U       0.140600
     24 C21        169.7150   180.8750   187.5620 c6         1 J4U       0.140600
     25 C22        160.7100   176.2010   185.9000 c3         1 J4U      -0.074400
     26 C23        161.8060   175.2560   186.4070 c3         1 J4U      -0.099700
     27 C24        161.1950   173.9990   187.0390 c3         1 J4U       0.146900
     28 C2B        163.1450   171.0540   187.7570 c6         1 J4U       0.092600
     29 C2C        165.7700   176.4660   187.5310 c6         1 J4U       0.092600
     30 C3         169.7220   168.6590   186.8080 c6         1 J4U       0.160100
     31 C31        170.8060   181.0200   186.5120 c6         1 J4U       0.160100
     32 C3B        164.6000   170.6660   187.9820 c6         1 J4U       0.123100
     33 C3C        167.1040   177.2310   187.4170 c6         1 J4U       0.123100
     34 C4         168.9690   167.3350   186.9460 c6         1 J4U       0.079100
     35 C41        171.7150   179.7920   186.4910 c6         1 J4U       0.079100
     36 C48        162.7260   175.9750   187.3830 c3         1 J4U       0.146900
     37 C4B        165.3220   170.8100   186.6450 c6         1 J4U       0.107100
     38 C4C        166.8960   178.6020   188.0480 c6         1 J4U       0.107100
     39 C5         167.7230   167.5110   187.8430 c6         1 J4U       0.124100
     40 C51        170.8820   178.5090   186.3900 c6         1 J4U       0.124100
     41 C5B        165.0120   172.1670   185.9790 c6         1 J4U       0.144600
     42 C5C        165.8720   179.4120   187.2320 c6         1 J4U       0.144600
     43 C6         167.9310   167.0280   189.2680 c3         1 J4U       0.135900
     44 C61        171.7070   177.2440   186.5770 c3         1 J4U       0.135900
     45 C6B        164.5260   172.0370   184.5490 c3         1 J4U       0.116900
     46 C6C        165.1900   180.4570   188.0990 c3         1 J4U       0.116900
     47 C73        161.1770   167.6590   174.8730 c5         1 J4U       0.344600
     48 C74        160.2120   168.8650   175.0600 c5         1 J4U      -0.066700
     49 C75        160.1250   169.8720   173.9240 c3         1 J4U      -0.074100
     50 C76        162.1960   167.7680   173.7440 c6         1 J4U      -0.085400
     51 C77        162.9850   166.4750   173.5670 c6         1 J4U      -0.069400
     52 C78        162.0390   165.2930   173.3890 c6         1 J4U      -0.098700
     53 C79        161.0250   165.2960   174.5230 c6         1 J4U       0.145400
     54 C81        162.7750   163.9630   173.3340 c3         1 J4U      -0.084100
     55 CF1        169.0020   179.5420   187.3260 c6         1 J4U       0.314900
     56 O1         166.7350   170.7420   186.7880 os         1 J4U      -0.403100
     57 O11        168.0580   179.3650   188.3210 os         1 J4U      -0.403100
     58 O1B        161.8860   172.7950   186.7640 os         1 J4U      -0.393600
     59 O1C        163.5270   176.8750   186.6480 os         1 J4U      -0.393600
     60 O2         169.3190   170.9820   186.4920 oh         1 J4U      -0.566800
     61 O20        161.0840   175.8320   183.5820 os         1 J4U      -0.409600
     62 O21        168.8310   181.9570   187.4280 oh         1 J4U      -0.566800
     63 O2B        162.3450   170.8320   188.8890 oh         1 J4U      -0.602300
     64 O3         170.1690   169.1100   188.0620 oh         1 J4U      -0.569300
     65 O31        171.5320   182.1920   186.7820 oh         1 J4U      -0.569300
     66 O3B        164.6060   169.3470   188.4610 oh         1 J4U      -0.607300
     67 O3C        167.4910   177.3630   186.0740 oh         1 J4U      -0.607300
     68 O4         168.6370   166.9320   185.6350 oh         1 J4U      -0.604300
     69 O5         167.3200   168.8690   187.9270 os         1 J4U      -0.433100
     70 O51        169.9250   178.4910   187.4230 os         1 J4U      -0.433100
     71 O5B        164.2020   173.0190   186.7830 os         1 J4U      -0.407600
     72 O5C        164.9280   178.5620   186.6060 os         1 J4U      -0.407600
     73 O6         168.0910   165.6290   189.2160 oh         1 J4U      -0.613800
     74 O61        172.7010   177.1980   185.5730 oh         1 J4U      -0.613800
     75 O6B        163.3760   171.2340   184.4750 oh         1 J4U      -0.588800
     76 O6C        164.4020   181.2830   187.2780 oh         1 J4U      -0.588800
     77 O72        161.8680   167.5230   176.0900 os         1 J4U      -0.425600
     78 O80        160.3500   166.5330   174.6550 os         1 J4U      -0.433600
     79 H2         160.7380   169.4320   180.8660 hc         1 J4U       0.042700
     80 H3         162.3710   170.0060   180.7400 hc         1 J4U       0.042700
     81 H4         160.8080   173.1150   183.6120 hc         1 J4U       0.057200
     82 H5         162.4100   173.6540   183.1420 hc         1 J4U       0.057200
     83 H6         159.8390   174.9540   182.1830 h1         1 J4U       0.034700
     84 H7         163.4300   171.3890   176.2060 hc         1 J4U       0.036367
     85 H8         163.3970   169.6480   175.9960 hc         1 J4U       0.036367
     86 H9         162.5880   170.6960   174.8360 hc         1 J4U       0.036367
     87 H10        159.5980   169.6550   176.9630 hc         1 J4U       0.060700
     88 H11        160.3580   167.4720   177.5080 h1         1 J4U       0.053700
     89 H12        162.9790   170.6080   178.3890 hc         1 J4U       0.055700
     90 H13        160.0200   170.5200   179.0080 hc         1 J4U       0.045700
     91 H14        159.9930   172.6910   179.2870 hc         1 J4U       0.044700
     92 H15        160.9630   172.3240   175.6770 hc         1 J4U       0.041200
     93 H16        159.7690   171.8030   176.8410 hc         1 J4U       0.041200
     94 H17        162.7740   175.5240   181.5900 hc         1 J4U       0.056200
     95 H18        161.4270   176.5410   181.0970 hc         1 J4U       0.056200
     96 H19        162.0530   175.0530   179.2460 hc         1 J4U       0.042200
     97 H20        160.4250   174.7490   179.8000 hc         1 J4U       0.042200
     98 H23        161.7310   168.2580   179.2180 hc         1 J4U       0.054700
     99 H24        163.0580   168.3100   178.0910 hc         1 J4U       0.054700
    100 H25        162.4970   172.9230   177.6070 hc         1 J4U       0.042200
    101 H26        161.0270   173.8610   177.5540 hc         1 J4U       0.042200
    102 H27        166.8140   168.8830   185.9390 h2         1 J4U       0.050700
    103 H28        163.8280   173.4730   180.9980 hc         1 J4U       0.033700
    104 H29        163.6130   171.9030   180.2390 hc         1 J4U       0.033700
    105 H30        163.7480   173.3530   179.2480 hc         1 J4U       0.033700
    106 H31        160.7860   170.9600   182.7250 ha         1 J4U       0.127000
    107 H33        163.0560   173.0830   188.4120 h2         1 J4U       0.037700
    108 H34        164.2290   177.7430   188.3650 h2         1 J4U       0.037700
    109 H35        168.7920   169.5550   185.1010 h1         1 J4U       0.054700
    110 H36        170.1760   180.8470   188.5610 h1         1 J4U       0.054700
    111 H37        161.1100   177.2100   185.7730 hc         1 J4U       0.057700
    112 H38        159.9160   176.2830   186.6490 hc         1 J4U       0.057700
    113 H39        162.4120   174.9380   185.5540 hc         1 J4U       0.098700
    114 H40        161.0830   174.1360   188.1240 h1         1 J4U       0.033950
    115 H41        160.1920   173.8380   186.6430 h1         1 J4U       0.033950
    116 H42        162.7680   170.4880   186.8930 h1         1 J4U       0.055200
    117 H43        165.7120   176.0380   188.5400 h1         1 J4U       0.055200
    118 H44        170.5720   168.5060   186.1300 h1         1 J4U       0.053700
    119 H45        170.3150   181.0800   185.5260 h1         1 J4U       0.053700
    120 H46        165.0570   171.3530   188.7110 h1         1 J4U       0.062700
    121 H47        167.8630   176.6810   187.9900 h1         1 J4U       0.062700
    122 H48        169.6340   166.5960   187.4120 h1         1 J4U       0.052200
    123 H49        172.2680   179.7590   187.4450 h1         1 J4U       0.052200
    124 H50        163.3420   175.2560   187.9360 h1         1 J4U       0.033950
    125 H51        162.1350   176.5090   188.1410 h1         1 J4U       0.033950
    126 H52        164.9860   169.9910   185.9940 h1         1 J4U       0.069200
    127 H53        166.4840   178.4160   189.0490 h1         1 J4U       0.069200
    128 H54        166.9030   166.9200   187.4030 h1         1 J4U       0.059200
    129 H55        170.3870   178.4850   185.4050 h1         1 J4U       0.059200
    130 H56        165.9620   172.7020   185.9140 h1         1 J4U       0.099700
    131 H57        166.3880   179.9270   186.4150 h1         1 J4U       0.099700
    132 H58        168.8030   167.5260   189.7040 h1         1 J4U       0.042950
    133 H59        167.0570   167.3120   189.8690 h1         1 J4U       0.042950
    134 H60        172.1500   177.2590   187.5790 h1         1 J4U       0.042950
    135 H61        171.0430   176.3730   186.5200 h1         1 J4U       0.042950
    136 H62        165.3570   171.6080   183.9720 h1         1 J4U       0.026450
    137 H63        164.3520   173.0450   184.1510 h1         1 J4U       0.026450
    138 H64        165.9640   181.0260   188.6290 h1         1 J4U       0.026450
    139 H65        164.5890   179.9560   188.8710 h1         1 J4U       0.026450
    140 H66        159.2140   168.4210   175.1400 hc         1 J4U       0.068700
    141 H67        159.4320   170.6710   174.1880 hc         1 J4U       0.037367
    142 H68        161.0770   170.3340   173.6710 hc         1 J4U       0.037367
    143 H69        159.7430   169.3980   173.0190 hc         1 J4U       0.037367
    144 H70        162.8670   168.6080   173.9220 hc         1 J4U       0.054700
    145 H71        161.6610   167.9860   172.8160 hc         1 J4U       0.054700
    146 H72        163.6320   166.3010   174.4330 hc         1 J4U       0.046200
    147 H73        163.6470   166.5630   172.7010 hc         1 J4U       0.046200
    148 H74        161.4940   165.4310   172.4470 hc         1 J4U       0.052700
    149 H75        160.2510   164.5470   174.3430 h1         1 J4U       0.046700
    150 H76        161.5270   165.0220   175.4610 h1         1 J4U       0.046700
    151 H77        162.0850   163.1280   173.1980 hc         1 J4U       0.034033
    152 H78        163.4860   163.9430   172.5080 hc         1 J4U       0.034033
    153 H79        163.3330   163.7860   174.2560 hc         1 J4U       0.034033
    154 H80        168.5510   179.5560   186.3220 h2         1 J4U       0.050700
    155 H81        168.7850   171.6410   186.0360 ho         1 J4U       0.411500
    156 H82        168.2440   181.9640   188.1910 ho         1 J4U       0.411500
    157 H83        162.3910   169.8940   189.1040 ho         1 J4U       0.436500
    158 H85        170.8730   168.5230   188.3550 ho         1 J4U       0.409000
    159 H86        172.1780   182.3130   186.0790 ho         1 J4U       0.409000
    160 H87        165.5280   169.0700   188.5710 ho         1 J4U       0.439000
    161 H88        167.2300   176.5500   185.6230 ho         1 J4U       0.439000
    162 H89        168.1980   166.0760   185.6760 ho         1 J4U       0.425500
    163 H91        168.4050   165.3280   190.0730 ho         1 J4U       0.416500
    164 H92        173.3470   176.5250   185.8070 ho         1 J4U       0.416500
    165 H93        163.0810   171.2000   183.5580 ho         1 J4U       0.409500
    166 H94        163.9510   181.9200   187.8380 ho         1 J4U       0.409500
    167 CG1        160.0980   175.7520   184.5870 c3         1 J4U       0.141400
    168 O2C        165.8170   175.4630   186.5530 oh         1 J4U      -0.602300
    169 O41        172.5870   179.9550   185.3990 oh         1 J4U      -0.604300
    170 H21        159.2420   176.3910   184.3320 h1         1 J4U       0.023700
    171 H22        159.7040   174.7320   184.6840 h1         1 J4U       0.023700
    172 H84        165.1520   174.7820   186.7240 ho         1 J4U       0.436500
    173 H90        173.0780   179.1290   185.2980 ho         1 J4U       0.425500
@<TRIPOS>BOND
     1     1     3 1   
     2     1    18 1   
     3     1    20 2   
     4     2     9 1   
     5     2    20 1   
     6     2    79 1   
     7     2    80 1   
     8     3     4 1   
     9     3    81 1   
    10     3    82 1   
    11     4    12 1   
    12     4    61 1   
    13     4    83 1   
    14     5    14 1   
    15     5    84 1   
    16     5    85 1   
    17     5    86 1   
    18     6     7 1   
    19     6    14 1   
    20     6    48 1   
    21     6    87 1   
    22     7    15 1   
    23     7    77 1   
    24     7    88 1   
    25     8     9 1   
    26     8    14 1   
    27     8    15 1   
    28     8    89 1   
    29     9    10 1   
    30     9    90 1   
    31    10    16 1   
    32    10    18 1   
    33    10    91 1   
    34    11    14 1   
    35    11    16 1   
    36    11    92 1   
    37    11    93 1   
    38    12    13 1   
    39    12    94 1   
    40    12    95 1   
    41    13    18 1   
    42    13    96 1   
    43    13    97 1   
    44    15    98 1   
    45    15    99 1   
    46    16   100 1   
    47    16   101 1   
    48    17    23 1   
    49    17    56 1   
    50    17    69 1   
    51    17   102 1   
    52    18    19 1   
    53    19   103 1   
    54    19   104 1   
    55    19   105 1   
    56    20   106 1   
    57    21    28 1   
    58    21    58 1   
    59    21    71 1   
    60    21   107 1   
    61    22    29 1   
    62    22    59 1   
    63    22    72 1   
    64    22   108 1   
    65    23    30 1   
    66    23    60 1   
    67    23   109 1   
    68    24    31 1   
    69    24    55 1   
    70    24    62 1   
    71    24   110 1   
    72    25    26 1   
    73    25   111 1   
    74    25   112 1   
    75    25   167 1   
    76    26    27 1   
    77    26    36 1   
    78    26   113 1   
    79    27    58 1   
    80    27   114 1   
    81    27   115 1   
    82    28    32 1   
    83    28    63 1   
    84    28   116 1   
    85    29    33 1   
    86    29   117 1   
    87    29   168 1   
    88    30    34 1   
    89    30    64 1   
    90    30   118 1   
    91    31    35 1   
    92    31    65 1   
    93    31   119 1   
    94    32    37 1   
    95    32    66 1   
    96    32   120 1   
    97    33    38 1   
    98    33    67 1   
    99    33   121 1   
   100    34    39 1   
   101    34    68 1   
   102    34   122 1   
   103    35    40 1   
   104    35   123 1   
   105    35   169 1   
   106    36    59 1   
   107    36   124 1   
   108    36   125 1   
   109    37    41 1   
   110    37    56 1   
   111    37   126 1   
   112    38    42 1   
   113    38    57 1   
   114    38   127 1   
   115    39    43 1   
   116    39    69 1   
   117    39   128 1   
   118    40    44 1   
   119    40    70 1   
   120    40   129 1   
   121    41    45 1   
   122    41    71 1   
   123    41   130 1   
   124    42    46 1   
   125    42    72 1   
   126    42   131 1   
   127    43    73 1   
   128    43   132 1   
   129    43   133 1   
   130    44    74 1   
   131    44   134 1   
   132    44   135 1   
   133    45    75 1   
   134    45   136 1   
   135    45   137 1   
   136    46    76 1   
   137    46   138 1   
   138    46   139 1   
   139    47    48 1   
   140    47    50 1   
   141    47    77 1   
   142    47    78 1   
   143    48    49 1   
   144    48   140 1   
   145    49   141 1   
   146    49   142 1   
   147    49   143 1   
   148    50    51 1   
   149    50   144 1   
   150    50   145 1   
   151    51    52 1   
   152    51   146 1   
   153    51   147 1   
   154    52    53 1   
   155    52    54 1   
   156    52   148 1   
   157    53    78 1   
   158    53   149 1   
   159    53   150 1   
   160    54   151 1   
   161    54   152 1   
   162    54   153 1   
   163    55    57 1   
   164    55    70 1   
   165    55   154 1   
   166    60   155 1   
   167    61   167 1   
   168    62   156 1   
   169    63   157 1   
   170    64   158 1   
   171    65   159 1   
   172    66   160 1   
   173    67   161 1   
   174    68   162 1   
   175    73   163 1   
   176    74   164 1   
   177    75   165 1   
   178    76   166 1   
   179   167   170 1   
   180   167   171 1   
   181   168   172 1   
   182   169   173 1   
@<TRIPOS>SUBSTRUCTURE
     1 J4U         1 TEMP              0 ****  ****    0 ROOT
