@<TRIPOS>MOLECULE
J4U
  173   182     1     0     0
SMALL
No Charge or Current Charge


@<TRIPOS>ATOM
      1 C13        160.7500   171.9460   180.9810 c2         1 J4U      -0.105400
      2 C15        159.6240   170.0180   179.8090 c6         1 J4U      -0.035200
      3 C16        160.8970   172.8080   182.2420 c6         1 J4U      -0.072200
      4 C17        161.6110   174.1630   182.0180 c6         1 J4U       0.179300
      5 C01        162.4880   168.5180   175.8430 c3         1 J4U      -0.081100
      6 C03        159.8670   169.2490   175.5050 c5         1 J4U      -0.085700
      7 C04        159.3490   167.9300   176.0810 c5         1 J4U       0.163300
      8 C06        160.8500   169.1520   177.6860 c5         1 J4U      -0.058700
      9 C07        160.2510   170.3910   178.4330 c6         1 J4U      -0.042700
     10 C08        161.3160   171.5790   178.5320 c6         1 J4U      -0.044700
     11 C10        161.8510   170.9590   176.0810 c6         1 J4U      -0.067400
     12 C18        162.9360   173.9330   181.2720 c6         1 J4U      -0.075400
     13 C19        162.6640   173.2870   179.9000 c6         1 J4U      -0.068400
     14 C02        161.3020   169.4740   176.2090 c5         1 J4U      -0.029000
     15 C05        159.9300   167.8770   177.5270 c5         1 J4U      -0.078400
     16 C09        162.4210   171.4820   177.4170 c6         1 J4U      -0.072400
     17 C1         168.5060   170.5190   186.4170 c6         1 J4U       0.361300
     18 C11        161.9200   171.9070   179.9780 c6         1 J4U       0.000200
     19 C12        162.9010   170.7970   180.4830 c3         1 J4U      -0.078100
     20 C14        159.7080   171.1070   180.8640 c2         1 J4U      -0.237200
     21 C1B        163.6790   172.7690   187.6090 c6         1 J4U       0.388300
     22 C1C        164.7740   177.6980   187.4730 c6         1 J4U       0.388300
     23 C2         169.9940   170.9490   186.1560 c6         1 J4U       0.163800
     24 C21        169.4140   181.7300   188.6180 c6         1 J4U       0.163800
     25 C22        161.3240   176.0120   185.2990 c3         1 J4U      -0.074400
     26 C23        162.2960   175.1790   186.1900 c3         1 J4U      -0.099700
     27 C24        161.6180   173.9360   186.8380 c3         1 J4U       0.170100
     28 C2B        164.1230   171.3050   187.9610 c6         1 J4U       0.115800
     29 C2C        165.7870   176.8610   188.3550 c6         1 J4U       0.115800
     30 C3         171.0000   169.8010   186.5350 c6         1 J4U       0.183300
     31 C31        170.8400   181.7140   187.9740 c6         1 J4U       0.183300
     32 C3B        165.6650   171.2200   188.0350 c6         1 J4U       0.146300
     33 C3C        166.9930   177.7630   188.8230 c6         1 J4U       0.146300
     34 C4         170.3180   168.3970   186.4250 c6         1 J4U       0.102300
     35 C41        171.7820   180.7650   188.7750 c6         1 J4U       0.102300
     36 C48        162.9610   176.0710   187.2670 c3         1 J4U       0.170100
     37 C4B        166.2610   171.5320   186.6190 c6         1 J4U       0.130300
     38 C4C        166.6060   179.2890   188.8150 c6         1 J4U       0.130300
     39 C5         169.0170   168.3360   187.3200 c6         1 J4U       0.147300
     40 C51        171.1330   179.3520   188.9030 c6         1 J4U       0.147300
     41 C5B        165.5940   172.8050   185.9910 c6         1 J4U       0.167800
     42 C5C        166.0590   179.7450   187.4110 c6         1 J4U       0.167800
     43 C6         169.2540   167.6800   188.7170 c3         1 J4U       0.159100
     44 C61        171.9880   178.3770   189.7720 c3         1 J4U       0.159100
     45 C6B        164.8480   172.5360   184.6350 c3         1 J4U       0.140100
     46 C6C        164.9730   180.8680   187.5440 c3         1 J4U       0.140100
     47 C73        159.8930   167.3620   173.8880 c5         1 J4U       0.391000
     48 C74        159.8670   168.9440   173.9680 c5         1 J4U      -0.066700
     49 C75        160.7880   169.7840   173.0430 c3         1 J4U      -0.074100
     50 C76        161.0150   166.7190   173.0220 c6         1 J4U      -0.085400
     51 C77        160.8140   165.2020   172.8490 c6         1 J4U      -0.069400
     52 C78        159.4200   164.9380   172.2430 c6         1 J4U      -0.098700
     53 C79        158.3160   165.5810   173.1220 c6         1 J4U       0.168600
     54 C81        159.1660   163.4220   172.0330 c3         1 J4U      -0.084100
     55 CF1        168.9040   180.2520   188.7300 c6         1 J4U       0.361300
     56 O1         167.7040   171.6940   186.6720 os         1 J4U      -0.449500
     57 O11        167.6080   180.1980   189.3650 os         1 J4U      -0.449500
     58 O1B        162.4860   172.7800   186.7930 os         1 J4U      -0.440000
     59 O1C        163.9630   176.8720   186.6200 os         1 J4U      -0.440000
     60 O2         170.3270   172.1490   186.9060 oh         1 J4U      -0.689000
     61 O20        161.8890   174.8400   183.2620 os         1 J4U      -0.456000
     62 O21        168.4900   182.5600   187.8690 oh         1 J4U      -0.689000
     63 O2B        163.5300   170.7980   189.1740 oh         1 J4U      -0.724500
     64 O3         171.5020   170.0270   187.8630 oh         1 J4U      -0.631500
     65 O31        171.4340   183.0250   187.9290 oh         1 J4U      -0.631500
     66 O3B        166.0600   169.9240   188.5240 oh         1 J4U      -0.729500
     67 O3C        168.0910   177.4560   187.9500 oh         1 J4U      -0.729500
     68 O4         169.9790   168.1450   185.0410 oh         1 J4U      -0.726500
     69 O5         168.4680   169.6630   187.5690 os         1 J4U      -0.479500
     70 O51        169.8310   179.4750   189.5160 os         1 J4U      -0.479500
     71 O5B        164.7510   173.5090   186.9600 os         1 J4U      -0.454000
     72 O5C        165.5200   178.6160   186.6590 os         1 J4U      -0.454000
     73 O6         169.6870   166.3080   188.6240 oh         1 J4U      -0.736000
     74 O61        173.3320   178.2240   189.2630 oh         1 J4U      -0.736000
     75 O6B        163.7150   171.6620   184.7290 oh         1 J4U      -0.711000
     76 O6C        164.4310   181.2920   186.2780 oh         1 J4U      -0.711000
     77 O72        159.9880   166.9330   175.2630 os         1 J4U      -0.472000
     78 O80        158.5680   166.9750   173.4300 os         1 J4U      -0.480000
     79 H2         158.5700   169.7450   179.6600 hc         1 J4U       0.042700
     80 H3         160.1080   169.1190   180.2160 hc         1 J4U       0.042700
     81 H4         159.9060   172.9750   182.6830 hc         1 J4U       0.057200
     82 H5         161.4670   172.2350   182.9840 hc         1 J4U       0.057200
     83 H6         160.9690   174.8130   181.4050 h1         1 J4U       0.034700
     84 H7         163.3630   168.7520   176.4610 hc         1 J4U       0.036367
     85 H8         162.2710   167.4600   176.0190 hc         1 J4U       0.036367
     86 H9         162.8170   168.6230   174.8080 hc         1 J4U       0.036367
     87 H10        159.1780   170.0710   175.7290 hc         1 J4U       0.060700
     88 H11        158.2560   167.8240   176.0280 h1         1 J4U       0.053700
     89 H12        161.7130   168.8790   178.3040 hc         1 J4U       0.055700
     90 H13        159.4210   170.7770   177.8280 hc         1 J4U       0.045700
     91 H14        160.7240   172.4680   178.2690 hc         1 J4U       0.044700
     92 H15        162.6140   171.0270   175.2930 hc         1 J4U       0.041200
     93 H16        161.0400   171.6280   175.7630 hc         1 J4U       0.041200
     94 H17        163.6070   173.3020   181.8700 hc         1 J4U       0.056200
     95 H18        163.4510   174.8930   181.1310 hc         1 J4U       0.056200
     96 H19        163.6180   173.1750   179.3680 hc         1 J4U       0.042200
     97 H20        162.0720   173.9970   179.3060 hc         1 J4U       0.042200
     98 H23        159.1240   167.8530   178.2660 hc         1 J4U       0.054700
     99 H24        160.5050   166.9570   177.6840 hc         1 J4U       0.054700
    100 H25        163.2430   170.8270   177.7300 hc         1 J4U       0.042200
    101 H26        162.8680   172.4700   177.2440 hc         1 J4U       0.042200
    102 H27        168.1160   169.9840   185.5380 h2         1 J4U       0.050700
    103 H28        163.1920   170.9650   181.5270 hc         1 J4U       0.033700
    104 H29        162.4490   169.8010   180.4360 hc         1 J4U       0.033700
    105 H30        163.8270   170.7670   179.8990 hc         1 J4U       0.033700
    106 H31        158.9170   171.0950   181.6160 ha         1 J4U       0.177000
    107 H33        163.4520   173.2770   188.5570 h2         1 J4U       0.037700
    108 H34        164.1060   178.2710   188.1340 h2         1 J4U       0.037700
    109 H35        170.0870   171.1450   185.0780 h1         1 J4U       0.054700
    110 H36        169.5140   182.1220   189.6410 h1         1 J4U       0.054700
    111 H37        161.8380   176.9160   184.9520 hc         1 J4U       0.057700
    112 H38        160.4780   176.3540   185.9070 hc         1 J4U       0.057700
    113 H39        163.0910   174.8180   185.5290 hc         1 J4U       0.098700
    114 H40        161.3200   174.1610   187.8710 h1         1 J4U       0.033950
    115 H41        160.6960   173.6960   186.2960 h1         1 J4U       0.033950
    116 H42        163.8070   170.6560   187.1310 h1         1 J4U       0.055200
    117 H43        165.2440   176.5260   189.2520 h1         1 J4U       0.055200
    118 H44        171.8390   169.8360   185.8230 h1         1 J4U       0.053700
    119 H45        170.7460   181.3170   186.9520 h1         1 J4U       0.053700
    120 H46        166.0210   171.9980   188.7280 h1         1 J4U       0.062700
    121 H47        167.2520   177.4800   189.8550 h1         1 J4U       0.062700
    122 H48        171.0360   167.6370   186.7680 h1         1 J4U       0.052200
    123 H49        171.8910   181.1690   189.7930 h1         1 J4U       0.052200
    124 H50        163.4150   175.4470   188.0450 h1         1 J4U       0.033950
    125 H51        162.2040   176.7020   187.7500 h1         1 J4U       0.033950
    126 H52        166.0320   170.6840   185.9560 h1         1 J4U       0.069200
    127 H53        165.7560   179.3630   189.5090 h1         1 J4U       0.069200
    128 H54        168.2510   167.7400   186.8020 h1         1 J4U       0.059200
    129 H55        171.0120   178.9050   187.9040 h1         1 J4U       0.059200
    130 H56        166.4120   173.4940   185.7320 h1         1 J4U       0.099700
    131 H57        166.8860   180.1620   186.8200 h1         1 J4U       0.099700
    132 H58        169.9990   168.2770   189.2610 h1         1 J4U       0.042950
    133 H59        168.3140   167.7380   189.2820 h1         1 J4U       0.042950
    134 H60        172.0150   178.7610   190.8010 h1         1 J4U       0.042950
    135 H61        171.4770   177.4050   189.7940 h1         1 J4U       0.042950
    136 H62        165.5760   172.1190   183.9270 h1         1 J4U       0.026450
    137 H63        164.5330   173.5050   184.2280 h1         1 J4U       0.026450
    138 H64        165.4310   181.7230   188.0570 h1         1 J4U       0.026450
    139 H65        164.1650   180.5010   188.1910 h1         1 J4U       0.026450
    140 H66        158.8760   169.2580   173.6200 hc         1 J4U       0.068700
    141 H67        160.6750   170.8540   173.2490 hc         1 J4U       0.037367
    142 H68        161.8470   169.5350   173.1460 hc         1 J4U       0.037367
    143 H69        160.5230   169.6270   171.9910 hc         1 J4U       0.037367
    144 H70        161.9960   166.9080   173.4730 hc         1 J4U       0.054700
    145 H71        161.0330   167.1930   172.0320 hc         1 J4U       0.054700
    146 H72        160.9100   164.6970   173.8210 hc         1 J4U       0.046200
    147 H73        161.5980   164.7930   172.1980 hc         1 J4U       0.046200
    148 H74        159.3750   165.3980   171.2460 hc         1 J4U       0.052700
    149 H75        157.3400   165.5000   172.6230 h1         1 J4U       0.046700
    150 H76        158.2480   165.0310   174.0720 h1         1 J4U       0.046700
    151 H77        158.1870   163.2450   171.5720 hc         1 J4U       0.034033
    152 H78        159.9250   162.9800   171.3750 hc         1 J4U       0.034033
    153 H79        159.1910   162.8760   172.9840 hc         1 J4U       0.034033
    154 H80        168.8410   179.8350   187.7140 h2         1 J4U       0.050700
    155 H81        169.4530   172.5860   187.0610 ho         1 J4U       0.510500
    156 H82        167.7210   182.7210   188.4620 ho         1 J4U       0.510500
    157 H83        164.1830   170.1140   189.4730 ho         1 J4U       0.535500
    158 H85        171.2910   170.9810   188.0050 ho         1 J4U       0.448000
    159 H86        172.3960   182.8530   187.8130 ho         1 J4U       0.448000
    160 H87        167.0170   169.8220   188.2550 ho         1 J4U       0.538000
    161 H88        167.7390   176.6140   187.5430 ho         1 J4U       0.538000
    162 H89        169.9060   167.1660   184.9300 ho         1 J4U       0.524500
    163 H91        169.8010   165.9780   189.5470 ho         1 J4U       0.515500
    164 H92        173.7500   177.4860   189.7720 ho         1 J4U       0.515500
    165 H93        163.1020   172.0850   185.3860 ho         1 J4U       0.508500
    166 H94        163.7440   181.9740   186.4670 ho         1 J4U       0.508500
    167 CG1        160.7710   175.2790   184.0540 c3         1 J4U       0.164600
    168 O2C        166.3470   175.7090   187.6490 oh         1 J4U      -0.724500
    169 O41        173.0790   180.6750   188.1550 oh         1 J4U      -0.726500
    170 H21        160.1400   175.9690   183.4790 h1         1 J4U       0.023700
    171 H22        160.1490   174.4320   184.3670 h1         1 J4U       0.023700
    172 H84        165.5880   175.1410   187.3520 ho         1 J4U       0.535500
    173 H90        173.4300   179.7880   188.4610 ho         1 J4U       0.524500
@<TRIPOS>BOND
     1     1     3 1   
     2     1    18 1   
     3     1    20 2   
     4     2     9 1   
     5     2    20 1   
     6     2    79 1   
     7     2    80 1   
     8     3     4 1   
     9     3    81 1   
    10     3    82 1   
    11     4    12 1   
    12     4    61 1   
    13     4    83 1   
    14     5    14 1   
    15     5    84 1   
    16     5    85 1   
    17     5    86 1   
    18     6     7 1   
    19     6    14 1   
    20     6    48 1   
    21     6    87 1   
    22     7    15 1   
    23     7    77 1   
    24     7    88 1   
    25     8     9 1   
    26     8    14 1   
    27     8    15 1   
    28     8    89 1   
    29     9    10 1   
    30     9    90 1   
    31    10    16 1   
    32    10    18 1   
    33    10    91 1   
    34    11    14 1   
    35    11    16 1   
    36    11    92 1   
    37    11    93 1   
    38    12    13 1   
    39    12    94 1   
    40    12    95 1   
    41    13    18 1   
    42    13    96 1   
    43    13    97 1   
    44    15    98 1   
    45    15    99 1   
    46    16   100 1   
    47    16   101 1   
    48    17    23 1   
    49    17    56 1   
    50    17    69 1   
    51    17   102 1   
    52    18    19 1   
    53    19   103 1   
    54    19   104 1   
    55    19   105 1   
    56    20   106 1   
    57    21    28 1   
    58    21    58 1   
    59    21    71 1   
    60    21   107 1   
    61    22    29 1   
    62    22    59 1   
    63    22    72 1   
    64    22   108 1   
    65    23    30 1   
    66    23    60 1   
    67    23   109 1   
    68    24    31 1   
    69    24    55 1   
    70    24    62 1   
    71    24   110 1   
    72    25    26 1   
    73    25   111 1   
    74    25   112 1   
    75    25   167 1   
    76    26    27 1   
    77    26    36 1   
    78    26   113 1   
    79    27    58 1   
    80    27   114 1   
    81    27   115 1   
    82    28    32 1   
    83    28    63 1   
    84    28   116 1   
    85    29    33 1   
    86    29   117 1   
    87    29   168 1   
    88    30    34 1   
    89    30    64 1   
    90    30   118 1   
    91    31    35 1   
    92    31    65 1   
    93    31   119 1   
    94    32    37 1   
    95    32    66 1   
    96    32   120 1   
    97    33    38 1   
    98    33    67 1   
    99    33   121 1   
   100    34    39 1   
   101    34    68 1   
   102    34   122 1   
   103    35    40 1   
   104    35   123 1   
   105    35   169 1   
   106    36    59 1   
   107    36   124 1   
   108    36   125 1   
   109    37    41 1   
   110    37    56 1   
   111    37   126 1   
   112    38    42 1   
   113    38    57 1   
   114    38   127 1   
   115    39    43 1   
   116    39    69 1   
   117    39   128 1   
   118    40    44 1   
   119    40    70 1   
   120    40   129 1   
   121    41    45 1   
   122    41    71 1   
   123    41   130 1   
   124    42    46 1   
   125    42    72 1   
   126    42   131 1   
   127    43    73 1   
   128    43   132 1   
   129    43   133 1   
   130    44    74 1   
   131    44   134 1   
   132    44   135 1   
   133    45    75 1   
   134    45   136 1   
   135    45   137 1   
   136    46    76 1   
   137    46   138 1   
   138    46   139 1   
   139    47    48 1   
   140    47    50 1   
   141    47    77 1   
   142    47    78 1   
   143    48    49 1   
   144    48   140 1   
   145    49   141 1   
   146    49   142 1   
   147    49   143 1   
   148    50    51 1   
   149    50   144 1   
   150    50   145 1   
   151    51    52 1   
   152    51   146 1   
   153    51   147 1   
   154    52    53 1   
   155    52    54 1   
   156    52   148 1   
   157    53    78 1   
   158    53   149 1   
   159    53   150 1   
   160    54   151 1   
   161    54   152 1   
   162    54   153 1   
   163    55    57 1   
   164    55    70 1   
   165    55   154 1   
   166    60   155 1   
   167    61   167 1   
   168    62   156 1   
   169    63   157 1   
   170    64   158 1   
   171    65   159 1   
   172    66   160 1   
   173    67   161 1   
   174    68   162 1   
   175    73   163 1   
   176    74   164 1   
   177    75   165 1   
   178    76   166 1   
   179   167   170 1   
   180   167   171 1   
   181   168   172 1   
   182   169   173 1   
@<TRIPOS>SUBSTRUCTURE
     1 J4U         1 TEMP              0 ****  ****    0 ROOT
