@<TRIPOS>MOLECULE
J4V
   58    62     1     0     0
SMALL
No Charge or Current Charge


@<TRIPOS>ATOM
      1 CBA         -3.3110     1.8520     0.7200 c6         1 J4V      -0.070400
      2 CAZ         -4.5730     1.0060     1.0820 c6         1 J4V      -0.047700
      3 CBF         -5.8070     1.9590     1.0920 c6         1 J4V      -0.070400
      4 CBC         -5.9950     2.5910    -0.3210 c6         1 J4V      -0.060200
      5 CBB         -6.1960     1.4620    -1.3760 c6         1 J4V      -0.070400
      6 CBD         -4.7260     3.4130    -0.6870 c6         1 J4V      -0.068400
      7 CBE         -3.4820     2.4780    -0.6930 c6         1 J4V      -0.060200
      8 CBG         -3.6980     1.3530    -1.7440 c6         1 J4V      -0.070400
      9 CAY         -4.9590     0.5110    -1.3710 c6         1 J4V      -0.047700
     10 CAW         -4.8600    -0.1490     0.0530 c6         1 J4V      -0.130700
     11 CAV         -3.8930    -1.3580     0.1420 c          1 J4V       0.610100
     12 OAX         -4.3010    -2.4770     0.4200 o          1 J4V      -0.606100
     13 N           -2.5610    -1.1320    -0.0960 ns         1 J4V      -0.502900
     14 CA          -1.5050    -2.1600    -0.0540 c3         1 J4V       0.090000
     15 C           -1.4490    -2.9930    -1.3730 c          1 J4V       0.602100
     16 O           -2.0810    -2.7030    -2.3860 o          1 J4V      -0.555100
     17 NAS         -0.5830    -4.0840    -1.3320 ns         1 J4V      -0.366400
     18 OAT         -0.6010    -5.0930    -2.3730 oh         1 J4V      -0.428100
     19 CAC         -0.1650    -1.4950     0.2500 ca         1 J4V      -0.102300
     20 CAD          0.4850    -1.7340     1.4750 ca         1 J4V      -0.091500
     21 CAE          1.7120    -1.1130     1.7610 ca         1 J4V      -0.095500
     22 CAB          0.4270    -0.6200    -0.6810 ca         1 J4V      -0.091500
     23 CAA          1.6530     0.0010    -0.3930 ca         1 J4V      -0.095500
     24 CAF          2.3230    -0.2320     0.8340 cp         1 J4V      -0.034000
     25 CAG          3.6300     0.4320     1.1410 cp         1 J4V       0.007000
     26 CAH          3.9030     1.7520     0.7000 ca         1 J4V      -0.139500
     27 CAI          5.1290     2.3740     0.9900 ca         1 J4V       0.162500
     28 FAO          5.3540     3.6360     0.5560 f          1 J4V      -0.153000
     29 CAJ          6.1130     1.6930     1.7260 ca         1 J4V       0.090000
     30 FAN          7.2960     2.2940     2.0050 f          1 J4V      -0.140000
     31 CAK          5.8610     0.3850     2.1720 ca         1 J4V       0.162500
     32 FAM          6.7990    -0.2860     2.8790 f          1 J4V      -0.153000
     33 CAL          4.6360    -0.2380     1.8840 ca         1 J4V      -0.139500
     34 H1          -3.1800     2.6530     1.4610 hc         1 J4V       0.043700
     35 H2          -2.3900     1.2610     0.7780 hc         1 J4V       0.043700
     36 H3          -4.4470     0.5750     2.0860 hc         1 J4V       0.056200
     37 H4          -6.7130     1.4100     1.3850 hc         1 J4V       0.043700
     38 H5          -5.6720     2.7490     1.8440 hc         1 J4V       0.043700
     39 H6          -6.8730     3.2510    -0.3160 hc         1 J4V       0.050700
     40 H7          -7.1130     0.8970    -1.1580 hc         1 J4V       0.043700
     41 H8          -6.3350     1.8980    -2.3750 hc         1 J4V       0.043700
     42 H9          -4.8510     3.8860    -1.6710 hc         1 J4V       0.040700
     43 H10         -4.5830     4.2310     0.0330 hc         1 J4V       0.040700
     44 H11         -2.5860     3.0600    -0.9510 hc         1 J4V       0.050700
     45 H12         -3.8370     1.8020    -2.7380 hc         1 J4V       0.043700
     46 H13         -2.8030     0.7270    -1.8380 hc         1 J4V       0.043700
     47 H14         -5.1090    -0.2740    -2.1260 hc         1 J4V       0.056200
     48 H15         -5.8420    -0.5780     0.2940 hc         1 J4V       0.073700
     49 H16         -2.2990    -0.1820    -0.3200 hn         1 J4V       0.328500
     50 H17         -1.7420    -2.8650     0.7540 h1         1 J4V       0.064700
     51 H18         -0.1700    -4.3610    -0.4430 hn         1 J4V       0.331500
     52 H19          0.3490    -5.1820    -2.6250 ho         1 J4V       0.446000
     53 H20          0.0380    -2.3970     2.2140 ha         1 J4V       0.127500
     54 H21          2.1850    -1.3050     2.7210 ha         1 J4V       0.121000
     55 H22         -0.0610    -0.4200    -1.6340 ha         1 J4V       0.127500
     56 H23          2.0940     0.6600    -1.1360 ha         1 J4V       0.121000
     57 H24          3.1550     2.3060     0.1410 ha         1 J4V       0.142000
     58 H25          4.4730    -1.2560     2.2290 ha         1 J4V       0.142000
@<TRIPOS>BOND
     1     1     2 1   
     2     1     7 1   
     3     1    34 1   
     4     1    35 1   
     5     2     3 1   
     6     2    10 1   
     7     2    36 1   
     8     3     4 1   
     9     3    37 1   
    10     3    38 1   
    11     4     5 1   
    12     4     6 1   
    13     4    39 1   
    14     5     9 1   
    15     5    40 1   
    16     5    41 1   
    17     6     7 1   
    18     6    42 1   
    19     6    43 1   
    20     7     8 1   
    21     7    44 1   
    22     8     9 1   
    23     8    45 1   
    24     8    46 1   
    25     9    10 1   
    26     9    47 1   
    27    10    11 1   
    28    10    48 1   
    29    11    12 2   
    30    11    13 1   
    31    13    14 1   
    32    13    49 1   
    33    14    15 1   
    34    14    19 1   
    35    14    50 1   
    36    15    16 2   
    37    15    17 1   
    38    17    18 1   
    39    17    51 1   
    40    18    52 1   
    41    19    20 ar  
    42    19    22 ar  
    43    20    21 ar  
    44    20    53 1   
    45    21    24 ar  
    46    21    54 1   
    47    22    23 ar  
    48    22    55 1   
    49    23    24 ar  
    50    23    56 1   
    51    24    25 1   
    52    25    26 ar  
    53    25    33 ar  
    54    26    27 ar  
    55    26    57 1   
    56    27    28 1   
    57    27    29 ar  
    58    29    30 1   
    59    29    31 ar  
    60    31    32 1   
    61    31    33 ar  
    62    33    58 1   
@<TRIPOS>SUBSTRUCTURE
     1 J4V         1 TEMP              0 ****  ****    0 ROOT
