@<TRIPOS>MOLECULE
J4V
   58    62     1     0     0
SMALL
abcg2


@<TRIPOS>ATOM
      1 CBA         -6.0100     0.4200     1.1910 c6         1 J4V      -0.070400
      2 CAZ         -5.7260     0.1460    -0.2890 c6         1 J4V      -0.047700
      3 CBF         -6.5480     1.1140    -1.1430 c6         1 J4V      -0.070400
      4 CBC         -6.1720     2.5570    -0.8030 c6         1 J4V      -0.060200
      5 CBB         -4.6840     2.7660    -1.0830 c6         1 J4V      -0.070400
      6 CBD         -6.4440     2.8250     0.6800 c6         1 J4V      -0.068400
      7 CBE         -5.6220     1.8590     1.5370 c6         1 J4V      -0.060200
      8 CBG         -4.1310     2.0600     1.2530 c6         1 J4V      -0.070400
      9 CAY         -3.8510     1.8040    -0.2300 c6         1 J4V      -0.047700
     10 CAW         -4.2360     0.3590    -0.6000 c6         1 J4V      -0.130700
     11 CAV         -3.3660    -0.7230     0.0180 c          1 J4V       0.610100
     12 OAX         -3.8030    -1.7970     0.4040 o          1 J4V      -0.606100
     13 N           -2.0420    -0.4750     0.0700 ns         1 J4V      -0.502900
     14 CA          -1.1270    -1.4790     0.5400 c3         1 J4V       0.090000
     15 C           -1.3000    -2.7690    -0.2750 c          1 J4V       0.602100
     16 O           -1.4260    -2.7650    -1.4780 o          1 J4V      -0.555100
     17 NAS         -1.1590    -3.8810     0.4750 ns         1 J4V      -0.366400
     18 OAT         -1.3630    -5.0970    -0.1050 oh         1 J4V      -0.428100
     19 CAC          0.3000    -1.0130     0.3890 ca         1 J4V      -0.102300
     20 CAD          1.1640    -1.0310     1.4760 ca         1 J4V      -0.091500
     21 CAE          2.4840    -0.6320     1.3380 ca         1 J4V      -0.095500
     22 CAB          0.7820    -0.5790    -0.8440 ca         1 J4V      -0.091500
     23 CAA          2.0980    -0.1760    -0.9790 ca         1 J4V      -0.095500
     24 CAF          2.9720    -0.1990     0.1070 cp         1 J4V      -0.034000
     25 CAG          4.3770     0.2210    -0.0440 cp         1 J4V       0.007000
     26 CAH          4.7050     1.3070    -0.8530 ca         1 J4V      -0.139500
     27 CAI          6.0240     1.6870    -0.9860 ca         1 J4V       0.162500
     28 FAO          6.3480     2.7320    -1.7470 f          1 J4V      -0.153000
     29 CAJ          7.0370     1.0130    -0.3290 ca         1 J4V       0.090000
     30 FAN          8.3040     1.3940    -0.4620 f          1 J4V      -0.140000
     31 CAK          6.7030    -0.0650     0.4720 ca         1 J4V       0.162500
     32 FAM          7.6810    -0.7200     1.0940 f          1 J4V      -0.153000
     33 CAL          5.3930    -0.4660     0.6200 ca         1 J4V      -0.139500
     34 H1          -7.0740     0.2620     1.3910 hc         1 J4V       0.043700
     35 H2          -5.4700    -0.2840     1.8280 hc         1 J4V       0.043700
     36 H3          -6.0050    -0.8800    -0.5350 hc         1 J4V       0.056200
     37 H4          -6.3800     0.9210    -2.2080 hc         1 J4V       0.043700
     38 H5          -7.6150     0.9490    -0.9640 hc         1 J4V       0.043700
     39 H6          -6.7590     3.2470    -1.4160 hc         1 J4V       0.050700
     40 H7          -4.4680     2.6090    -2.1440 hc         1 J4V       0.043700
     41 H8          -4.3950     3.7970    -0.8570 hc         1 J4V       0.043700
     42 H9          -6.1890     3.8610     0.9270 hc         1 J4V       0.040700
     43 H10         -7.5100     2.7070     0.8970 hc         1 J4V       0.040700
     44 H11         -5.8190     2.0480     2.5950 hc         1 J4V       0.050700
     45 H12         -3.8270     3.0780     1.5130 hc         1 J4V       0.043700
     46 H13         -3.5330     1.3910     1.8790 hc         1 J4V       0.043700
     47 H14         -2.7950     1.9970    -0.4510 hc         1 J4V       0.056200
     48 H15         -4.0910     0.2410    -1.6830 hc         1 J4V       0.073700
     49 H16         -1.6710     0.4080    -0.2330 hn         1 J4V       0.328500
     50 H17         -1.3120    -1.6820     1.6010 h1         1 J4V       0.064700
     51 H18         -1.3410    -3.8740     1.4670 hn         1 J4V       0.331500
     52 H19         -0.4850    -5.4570    -0.2690 ho         1 J4V       0.446000
     53 H20          0.8100    -1.3460     2.4490 ha         1 J4V       0.127500
     54 H21          3.1250    -0.6320     2.2100 ha         1 J4V       0.121000
     55 H22          0.1390    -0.5720    -1.7140 ha         1 J4V       0.127500
     56 H23          2.4510     0.1310    -1.9550 ha         1 J4V       0.121000
     57 H24          3.9430     1.8810    -1.3610 ha         1 J4V       0.142000
     58 H25          5.1740    -1.3300     1.2320 ha         1 J4V       0.142000
@<TRIPOS>BOND
     1     1     2 1   
     2     1     7 1   
     3     1    34 1   
     4     1    35 1   
     5     2     3 1   
     6     2    10 1   
     7     2    36 1   
     8     3     4 1   
     9     3    37 1   
    10     3    38 1   
    11     4     5 1   
    12     4     6 1   
    13     4    39 1   
    14     5     9 1   
    15     5    40 1   
    16     5    41 1   
    17     6     7 1   
    18     6    42 1   
    19     6    43 1   
    20     7     8 1   
    21     7    44 1   
    22     8     9 1   
    23     8    45 1   
    24     8    46 1   
    25     9    10 1   
    26     9    47 1   
    27    10    11 1   
    28    10    48 1   
    29    11    12 2   
    30    11    13 1   
    31    13    14 1   
    32    13    49 1   
    33    14    15 1   
    34    14    19 1   
    35    14    50 1   
    36    15    16 2   
    37    15    17 1   
    38    17    18 1   
    39    17    51 1   
    40    18    52 1   
    41    19    20 ar  
    42    19    22 ar  
    43    20    21 ar  
    44    20    53 1   
    45    21    24 ar  
    46    21    54 1   
    47    22    23 ar  
    48    22    55 1   
    49    23    24 ar  
    50    23    56 1   
    51    24    25 1   
    52    25    26 ar  
    53    25    33 ar  
    54    26    27 ar  
    55    26    57 1   
    56    27    28 1   
    57    27    29 ar  
    58    29    30 1   
    59    29    31 ar  
    60    31    32 1   
    61    31    33 ar  
    62    33    58 1   
@<TRIPOS>SUBSTRUCTURE
     1 J4V         1 TEMP              0 ****  ****    0 ROOT
