@<TRIPOS>MOLECULE
J4X
   47    50     1     0     0
SMALL
No Charge or Current Charge


@<TRIPOS>ATOM
      1 N1          -6.8770     1.5670    -0.3380 nv         1 J4X      -1.030200
      2 C2          -5.9560     0.6970     0.1120 ce         1 J4X       0.657800
      3 N3          -6.3300    -0.4860     0.3760 n2         1 J4X      -0.840100
      4 C4          -4.5240     1.1300     0.1090 ca         1 J4X      -0.184900
      5 C5          -4.1810     2.4750     0.3710 ca         1 J4X      -0.085000
      6 C6          -2.8370     2.8730     0.4170 ca         1 J4X      -0.093000
      7 C7          -1.8080     1.9390     0.2100 ca         1 J4X      -0.024000
      8 C8          -0.4700     2.3660     0.2680 ca         1 J4X      -0.060000
      9 C9           0.5920     1.4590     0.0660 ca         1 J4X      -0.127600
     10 C10          0.2720     0.1050    -0.1970 ca         1 J4X      -0.119000
     11 C11         -1.0630    -0.3440    -0.2440 ca         1 J4X       0.322000
     12 N12         -1.3260    -1.6940    -0.5360 nu         1 J4X      -0.940900
     13 C13         -0.7070    -2.8910    -0.2020 ca         1 J4X       0.379900
     14 N14         -1.2140    -3.9780    -0.8080 nb         1 J4X      -0.236500
     15 C15         -0.6460    -5.1610    -0.5000 ca         1 J4X       0.151400
     16 C16          0.4180    -5.2440     0.4130 ca         1 J4X      -0.270000
     17 C17          0.8700    -4.0480     0.9950 ca         1 J4X       0.151400
     18 N18          0.3040    -2.8640     0.6890 nb         1 J4X      -0.236500
     19 C19         -2.1190     0.5840    -0.0450 ca         1 J4X      -0.049000
     20 C20         -3.4810     0.1910    -0.0790 ca         1 J4X      -0.085000
     21 C21          2.0260     1.9610     0.1290 c          1 J4X       0.621700
     22 O22          2.2720     3.1480     0.3180 o          1 J4X      -0.580100
     23 N23          3.0120     0.9940    -0.0320 ns         1 J4X      -0.142000
     24 C24          4.4340     1.0620    -0.0580 ca         1 J4X      -0.018000
     25 C25          5.1620     2.2730    -0.0470 ca         1 J4X      -0.150000
     26 C26          6.5680     2.2580    -0.0790 ca         1 J4X      -0.084000
     27 C27          7.2600     1.0370    -0.1260 ca         1 J4X      -0.137000
     28 C28          6.5450    -0.1700    -0.1430 ca         1 J4X      -0.084000
     29 C29          5.1400    -0.1560    -0.1110 ca         1 J4X      -0.150000
     30 HN1         -7.7440     1.1280    -0.6210 hn         1 J4X       0.470000
     31 HN1A        -6.5280     2.2940    -0.9510 hn         1 J4X       0.470000
     32 HN3         -5.5250    -0.9880     0.7700 hn         1 J4X       0.390400
     33 H5          -4.9560     3.2170     0.5560 ha         1 J4X       0.130000
     34 H6          -2.5990     3.9150     0.6220 ha         1 J4X       0.124000
     35 H8          -0.2560     3.4140     0.4700 ha         1 J4X       0.140000
     36 H10          1.0580    -0.6160    -0.3950 ha         1 J4X       0.139000
     37 HN12        -2.1960    -1.8420    -1.0430 hn         1 J4X       0.518000
     38 H15         -1.0490    -6.0470    -0.9880 h4         1 J4X       0.025100
     39 H16          0.8750    -6.1990     0.6610 ha         1 J4X       0.140000
     40 H17          1.6890    -4.0360     1.7120 h4         1 J4X       0.025100
     41 H20         -3.7420    -0.8480    -0.2600 ha         1 J4X       0.119000
     42 HN23         2.6530     0.0570    -0.1540 hn         1 J4X       0.161000
     43 H25          4.6620     3.2360    -0.0200 ha         1 J4X       0.127500
     44 H26          7.1210     3.1950    -0.0700 ha         1 J4X       0.112500
     45 H27          8.3470     1.0280    -0.1510 ha         1 J4X       0.115000
     46 H28          7.0790    -1.1180    -0.1810 ha         1 J4X       0.112500
     47 H29          4.5990    -1.1000    -0.1250 ha         1 J4X       0.127500
@<TRIPOS>BOND
     1     1     2 1   
     2     1    30 1   
     3     1    31 1   
     4     2     3 2   
     5     2     4 1   
     6     3    32 1   
     7     4     5 ar  
     8     4    20 ar  
     9     5     6 ar  
    10     5    33 1   
    11     6     7 ar  
    12     6    34 1   
    13     7     8 ar  
    14     7    19 ar  
    15     8     9 ar  
    16     8    35 1   
    17     9    10 ar  
    18     9    21 1   
    19    10    11 ar  
    20    10    36 1   
    21    11    12 1   
    22    11    19 ar  
    23    12    13 1   
    24    12    37 1   
    25    13    14 ar  
    26    13    18 ar  
    27    14    15 ar  
    28    15    16 ar  
    29    15    38 1   
    30    16    17 ar  
    31    16    39 1   
    32    17    18 ar  
    33    17    40 1   
    34    19    20 ar  
    35    20    41 1   
    36    21    22 2   
    37    21    23 1   
    38    23    24 1   
    39    23    42 1   
    40    24    25 ar  
    41    24    29 ar  
    42    25    26 ar  
    43    25    43 1   
    44    26    27 ar  
    45    26    44 1   
    46    27    28 ar  
    47    27    45 1   
    48    28    29 ar  
    49    28    46 1   
    50    29    47 1   
@<TRIPOS>SUBSTRUCTURE
     1 J4X         1 TEMP              0 ****  ****    0 ROOT
