@<TRIPOS>MOLECULE
J4X
   47    50     1     0     0
SMALL
bcc


@<TRIPOS>ATOM
      1 N1          -6.7670     1.5400    -0.0120 nv         1 J4X      -0.919800
      2 C2          -5.8320     0.6660     0.4560 ce         1 J4X       0.657800
      3 N3          -6.1830    -0.4200     1.0300 n2         1 J4X      -0.840100
      4 C4          -4.4200     1.1130     0.2830 ca         1 J4X      -0.184900
      5 C5          -4.0740     2.4770     0.4150 ca         1 J4X      -0.103000
      6 C6          -2.7700     2.8680     0.3130 ca         1 J4X      -0.111000
      7 C7          -1.7450     1.9310     0.0460 ca         1 J4X      -0.024000
      8 C8          -0.3970     2.3350    -0.0250 ca         1 J4X      -0.078000
      9 C9           0.5850     1.4090    -0.2630 ca         1 J4X      -0.127600
     10 C10          0.2490     0.0600    -0.4990 ca         1 J4X      -0.137000
     11 C11         -1.0540    -0.3690    -0.4380 ca         1 J4X       0.183600
     12 N12         -1.4160    -1.6840    -0.7080 nu         1 J4X      -0.747300
     13 C13         -0.7130    -2.8310    -0.4750 ca         1 J4X       0.905900
     14 N14         -1.2960    -3.9410    -0.9360 nb         1 J4X      -0.762500
     15 C15         -0.6600    -5.0770    -0.7130 ca         1 J4X       0.479700
     16 C16          0.5520    -5.1380    -0.0400 ca         1 J4X      -0.418600
     17 C17          1.0580    -3.9260     0.3930 ca         1 J4X       0.479700
     18 N18          0.4390    -2.7720     0.1830 nb         1 J4X      -0.762500
     19 C19         -2.0910     0.5650    -0.1280 ca         1 J4X      -0.049000
     20 C20         -3.4420     0.1860     0.0190 ca         1 J4X      -0.103000
     21 C21          2.0040     1.8760    -0.3020 c          1 J4X       0.688700
     22 O22          2.2880     3.0140    -0.6330 o          1 J4X      -0.580100
     23 N23          2.9120     0.9440     0.0810 ns         1 J4X      -0.468100
     24 C24          4.3080     1.0340     0.1320 ca         1 J4X       0.074600
     25 C25          5.0470     2.1320    -0.3120 ca         1 J4X      -0.168000
     26 C26          6.4330     2.1040    -0.2240 ca         1 J4X      -0.102000
     27 C27          7.1030     1.0080     0.2980 ca         1 J4X      -0.155000
     28 C28          6.3640    -0.0830     0.7380 ca         1 J4X      -0.102000
     29 C29          4.9830    -0.0720     0.6560 ca         1 J4X      -0.168000
     30 HN1         -7.7180     1.2070    -0.0230 hn         1 J4X       0.414800
     31 HN1A        -6.5260     2.1230    -0.7960 hn         1 J4X       0.414800
     32 HN3         -5.3770    -0.9000     1.4140 hn         1 J4X       0.390400
     33 H5          -4.8400     3.2110     0.6280 ha         1 J4X       0.148000
     34 H6          -2.5050     3.9090     0.4440 ha         1 J4X       0.142000
     35 H8          -0.1500     3.3770     0.1330 ha         1 J4X       0.158000
     36 H10          1.0160    -0.6470    -0.7760 ha         1 J4X       0.157000
     37 HN12        -2.3000    -1.8390    -1.1670 hn         1 J4X       0.462800
     38 H15         -1.1350    -5.9780    -1.0860 h4         1 J4X       0.025100
     39 H16          1.0660    -6.0710     0.1330 ha         1 J4X       0.158000
     40 H17          1.9980    -3.8750     0.9320 h4         1 J4X       0.025100
     41 H20         -3.7270    -0.8540    -0.0720 ha         1 J4X       0.137000
     42 HN23         2.5400     0.0790     0.4430 hn         1 J4X       0.327500
     43 H25          4.5610     3.0010    -0.7220 ha         1 J4X       0.145500
     44 H26          6.9920     2.9630    -0.5730 ha         1 J4X       0.130500
     45 H27          8.1820     1.0020     0.3610 ha         1 J4X       0.133000
     46 H28          6.8620    -0.9510     1.1500 ha         1 J4X       0.130500
     47 H29          4.4210    -0.9320     1.0020 ha         1 J4X       0.145500
@<TRIPOS>BOND
     1     1     2 1   
     2     1    30 1   
     3     1    31 1   
     4     2     3 2   
     5     2     4 1   
     6     3    32 1   
     7     4     5 ar  
     8     4    20 ar  
     9     5     6 ar  
    10     5    33 1   
    11     6     7 ar  
    12     6    34 1   
    13     7     8 ar  
    14     7    19 ar  
    15     8     9 ar  
    16     8    35 1   
    17     9    10 ar  
    18     9    21 1   
    19    10    11 ar  
    20    10    36 1   
    21    11    12 1   
    22    11    19 ar  
    23    12    13 1   
    24    12    37 1   
    25    13    14 ar  
    26    13    18 ar  
    27    14    15 ar  
    28    15    16 ar  
    29    15    38 1   
    30    16    17 ar  
    31    16    39 1   
    32    17    18 ar  
    33    17    40 1   
    34    19    20 ar  
    35    20    41 1   
    36    21    22 2   
    37    21    23 1   
    38    23    24 1   
    39    23    42 1   
    40    24    25 ar  
    41    24    29 ar  
    42    25    26 ar  
    43    25    43 1   
    44    26    27 ar  
    45    26    44 1   
    46    27    28 ar  
    47    27    45 1   
    48    28    29 ar  
    49    28    46 1   
    50    29    47 1   
@<TRIPOS>SUBSTRUCTURE
     1 J4X         1 TEMP              0 ****  ****    0 ROOT
