@<TRIPOS>MOLECULE
J4Y
   30    31     1     0     0
SMALL
No Charge or Current Charge


@<TRIPOS>ATOM
      1 N1           2.2010    -0.3420     0.1010 ns         1 J4Y      -0.376500
      2 C4          -2.0820     0.7720     0.4170 cx         1 J4Y      -0.038400
      3 C5          -2.0730     1.5430     1.7180 cx         1 J4Y      -0.086400
      4 C6          -3.2890    -0.0010    -0.0620 ca         1 J4Y      -0.057300
      5 C7          -3.5640    -0.0710    -1.4430 ca         1 J4Y      -0.102000
      6 C8          -4.6790    -0.7850    -1.9150 ca         1 J4Y      -0.109000
      7 C10         -5.2680    -1.3750     0.3670 ca         1 J4Y      -0.109000
      8 N            0.8250    -0.3970     0.4950 ns         1 J4Y      -0.372500
      9 C            0.2650     0.4180     1.4620 c          1 J4Y       0.639100
     10 O            0.9260     1.1660     2.1710 o          1 J4Y      -0.577100
     11 C1           2.7550     0.7070    -0.6220 c          1 J4Y       0.600100
     12 C11         -4.1520    -0.6620     0.8400 ca         1 J4Y      -0.102000
     13 C2           4.2800     0.6270    -0.8060 c3         1 J4Y       0.023600
     14 C3          -1.2320     0.2900     1.5790 cx         1 J4Y      -0.237700
     15 C9          -5.5320    -1.4370    -1.0110 ca         1 J4Y      -0.107000
     16 O1           2.0670     1.6130    -1.0790 o          1 J4Y      -0.540100
     17 Cl           5.0010     1.9980    -1.7780 cl         1 J4Y      -0.214000
     18 H1           2.8260    -1.0420     0.4960 hn         1 J4Y       0.336500
     19 H2          -1.5510     1.2470    -0.4070 hc         1 J4Y       0.105700
     20 H3          -1.5660     2.5060     1.7270 hc         1 J4Y       0.084700
     21 H4          -2.9560     1.4990     2.3510 hc         1 J4Y       0.084700
     22 H5          -2.9130     0.4290    -2.1570 ha         1 J4Y       0.112500
     23 H6          -4.8820    -0.8310    -2.9830 ha         1 J4Y       0.113000
     24 H7          -5.9270    -1.8800     1.0690 ha         1 J4Y       0.113000
     25 H8           0.1960    -0.9570    -0.0760 hn         1 J4Y       0.338500
     26 H9          -3.9670    -0.6280     1.9100 ha         1 J4Y       0.112500
     27 H10          4.7520     0.6300     0.1830 h1         1 J4Y       0.079700
     28 H11          4.5230    -0.3120    -1.3150 h1         1 J4Y       0.079700
     29 H12         -1.5690    -0.5890     2.1210 hc         1 J4Y       0.090700
     30 H13         -6.3950    -1.9890    -1.3760 ha         1 J4Y       0.114000
@<TRIPOS>BOND
     1     1     8 1   
     2     1    11 1   
     3     1    18 1   
     4     2     3 1   
     5     2     4 1   
     6     2    14 1   
     7     2    19 1   
     8     3    14 1   
     9     3    20 1   
    10     3    21 1   
    11     4     5 ar  
    12     4    12 ar  
    13     5     6 ar  
    14     5    22 1   
    15     6    15 ar  
    16     6    23 1   
    17     7    12 ar  
    18     7    15 ar  
    19     7    24 1   
    20     8     9 1   
    21     8    25 1   
    22     9    10 2   
    23     9    14 1   
    24    11    13 1   
    25    11    16 2   
    26    12    26 1   
    27    13    17 1   
    28    13    27 1   
    29    13    28 1   
    30    14    29 1   
    31    15    30 1   
@<TRIPOS>SUBSTRUCTURE
     1 J4Y         1 TEMP              0 ****  ****    0 ROOT
