@<TRIPOS>MOLECULE
J4Y
   30    31     1     0     0
SMALL
bcc


@<TRIPOS>ATOM
      1 N1           2.4350    -0.0540     0.6220 ns         1 J4Y      -0.443500
      2 C4          -2.2830     0.9430     0.5210 cx         1 J4Y      -0.038400
      3 C5          -2.0900     1.1330     1.9850 cx         1 J4Y      -0.086400
      4 C6          -3.4200     0.1710    -0.0390 ca         1 J4Y      -0.057300
      5 C7          -3.8650     0.4570    -1.3280 ca         1 J4Y      -0.120000
      6 C8          -4.9220    -0.2450    -1.8910 ca         1 J4Y      -0.127000
      7 C10         -5.1180    -1.5440     0.1150 ca         1 J4Y      -0.127000
      8 N            1.1400    -0.3140     0.9320 ns         1 J4Y      -0.439500
      9 C            0.2230     0.6880     0.9840 c          1 J4Y       0.706100
     10 O            0.5210     1.8580     0.8380 o          1 J4Y      -0.577100
     11 C1           2.8130     0.1520    -0.6620 c          1 J4Y       0.667100
     12 C11         -4.0630    -0.8400     0.6760 ca         1 J4Y      -0.120000
     13 C2           4.3030     0.4060    -0.7920 c3         1 J4Y      -0.053000
     14 C3          -1.1600     0.2200     1.2440 cx         1 J4Y      -0.237700
     15 C9          -5.5540    -1.2500    -1.1710 ca         1 J4Y      -0.125000
     16 O1           2.0580     0.0890    -1.6050 o          1 J4Y      -0.540100
     17 CL           4.6440     1.3770    -2.2390 cl         1 J4Y      -0.137400
     18 H1           3.0690     0.1070     1.3900 hn         1 J4Y       0.336500
     19 H2          -1.9550     1.7680    -0.1010 hc         1 J4Y       0.105700
     20 H3          -1.6950     2.0830     2.3180 hc         1 J4Y       0.084700
     21 H4          -2.7950     0.6710     2.6650 hc         1 J4Y       0.084700
     22 H5          -3.3780     1.2380    -1.9010 ha         1 J4Y       0.130500
     23 H6          -5.2510    -0.0060    -2.8940 ha         1 J4Y       0.131000
     24 H7          -5.6030    -2.3240     0.6880 ha         1 J4Y       0.131000
     25 H8           0.8600    -1.2820     0.9760 hn         1 J4Y       0.338500
     26 H9          -3.7460    -1.0860     1.6830 ha         1 J4Y       0.130500
     27 H10          4.7100     0.9250     0.0740 h1         1 J4Y       0.079700
     28 H11          4.8200    -0.5480    -0.8940 h1         1 J4Y       0.079700
     29 H12         -1.2950    -0.8470     1.3910 hc         1 J4Y       0.090700
     30 H13         -6.3790    -1.7990    -1.6070 ha         1 J4Y       0.132000
@<TRIPOS>BOND
     1     1     8 1   
     2     1    11 1   
     3     1    18 1   
     4     2     3 1   
     5     2     4 1   
     6     2    14 1   
     7     2    19 1   
     8     3    14 1   
     9     3    20 1   
    10     3    21 1   
    11     4     5 ar  
    12     4    12 ar  
    13     5     6 ar  
    14     5    22 1   
    15     6    15 ar  
    16     6    23 1   
    17     7    12 ar  
    18     7    15 ar  
    19     7    24 1   
    20     8     9 1   
    21     8    25 1   
    22     9    10 2   
    23     9    14 1   
    24    11    13 1   
    25    11    16 2   
    26    12    26 1   
    27    13    17 1   
    28    13    27 1   
    29    13    28 1   
    30    14    29 1   
    31    15    30 1   
@<TRIPOS>SUBSTRUCTURE
     1 J4Y         1 TEMP              0 ****  ****    0 ROOT
