@<TRIPOS>MOLECULE
J50
   48    51     1     0     0
SMALL
No Charge or Current Charge


@<TRIPOS>ATOM
      1 C17        -38.5800    11.3400    19.0030 ca         1 J50      -0.123500
      2 C12        -39.0400    12.3730    15.5760 cc         1 J50       0.107300
      3 C14        -38.5230    11.5730    17.5540 cc         1 J50       0.199500
      4 C15        -37.5920    11.0700    16.6860 cd         1 J50      -0.167000
      5 C16        -37.9290    11.5850    15.4160 cd         1 J50      -0.142000
      6 C19        -39.5510    11.8780    21.1850 ca         1 J50      -0.111000
      7 C20        -38.7240    10.9250    21.7990 ca         1 J50      -0.100000
      8 C21        -37.8260    10.1770    21.0210 ca         1 J50      -0.111000
      9 C22        -37.7540    10.3810    19.6320 ca         1 J50      -0.089500
     10 C23        -40.2930    19.2420    16.8990 c          1 J50       0.600100
     11 C24        -40.1100    19.3360    18.4260 c3         1 J50       0.042600
     12 C18        -39.4810    12.0840    19.7970 ca         1 J50      -0.089500
     13 C01        -40.2030    17.9300    14.7650 c6         1 J50       0.097500
     14 C03        -39.0090    17.0610    16.8130 c6         1 J50       0.097500
     15 C04        -39.0500    15.6470    16.1920 c6         1 J50      -0.099400
     16 C05        -38.9760    15.6800    14.6470 c5         1 J50       0.291400
     17 C06        -40.2060    16.4950    14.1910 c6         1 J50      -0.099400
     18 C08        -37.5560    15.4080    12.4700 c5         1 J50      -0.026400
     19 C09        -38.2940    14.1190    12.8410 c          1 J50       0.566000
     20 N02        -40.0150    18.0130    16.2460 n          1 J50      -0.407800
     21 N10        -39.0090    14.3200    14.0410 n          1 J50      -0.417800
     22 O13        -39.4240    12.3770    16.8990 os         1 J50      -0.258000
     23 O25        -40.7290    20.1990    16.2680 o          1 J50      -0.592100
     24 S07        -37.3660    16.3680    14.0400 ss         1 J50      -0.423000
     25 H1         -36.7570    10.4190    16.9200 ha         1 J50       0.143000
     26 H2         -37.4040    11.4060    14.4830 ha         1 J50       0.148000
     27 H3         -40.2490    12.4590    21.7850 ha         1 J50       0.115000
     28 H4         -38.7790    10.7650    22.8740 ha         1 J50       0.116000
     29 H5         -37.1860     9.4360    21.4950 ha         1 J50       0.115000
     30 H6         -37.0540     9.7840    19.0540 ha         1 J50       0.117000
     31 H7         -40.7390    20.1520    18.8010 h1         1 J50       0.088200
     32 H8         -40.4360    18.4000    18.8930 h1         1 J50       0.088200
     33 Cl1        -38.3880    19.6820    18.9370 cl         1 J50      -0.260000
     34 H10        -40.1550    12.5430    13.7670 h1         1 J50       0.072700
     35 H11        -40.7220    13.5890    15.0640 h1         1 J50       0.072700
     36 H12        -40.1290    12.8290    19.3400 ha         1 J50       0.117000
     37 H13        -39.4030    18.5090    14.2810 h1         1 J50       0.070950
     38 H14        -41.1530    18.4120    14.4900 h1         1 J50       0.070950
     39 H15        -39.1530    16.9500    17.8960 h1         1 J50       0.070950
     40 H16        -38.0060    17.4890    16.6680 h1         1 J50       0.070950
     41 H17        -38.2180    15.0500    16.5900 hc         1 J50       0.068200
     42 H18        -41.1270    15.9850    14.5040 hc         1 J50       0.068200
     43 H19        -40.2430    16.5430    13.0950 hc         1 J50       0.068200
     44 H20        -36.5830    15.1630    12.0280 h1         1 J50       0.102700
     45 H21        -38.1650    15.9630    11.7460 h1         1 J50       0.102700
     46 H22        -39.9730    15.1560    16.5250 hc         1 J50       0.068200
     47 C11        -39.8180    13.1950    14.5830 c3         1 J50       0.089700
     48 O26        -38.2630    13.0600    12.2280 o          1 J50      -0.531000
@<TRIPOS>BOND
     1     1     3 1   
     2     1     9 ar  
     3     1    12 ar  
     4     2     5 2   
     5     2    22 1   
     6     2    47 1   
     7     3     4 2   
     8     3    22 1   
     9     4     5 1   
    10     4    25 1   
    11     5    26 1   
    12     6     7 ar  
    13     6    12 ar  
    14     6    27 1   
    15     7     8 ar  
    16     7    28 1   
    17     8     9 ar  
    18     8    29 1   
    19     9    30 1   
    20    10    11 1   
    21    10    20 1   
    22    10    23 2   
    23    11    31 1   
    24    11    32 1   
    25    11    33 1   
    26    12    36 1   
    27    13    17 1   
    28    13    20 1   
    29    13    37 1   
    30    13    38 1   
    31    14    15 1   
    32    14    20 1   
    33    14    39 1   
    34    14    40 1   
    35    15    16 1   
    36    15    41 1   
    37    15    46 1   
    38    16    17 1   
    39    16    21 1   
    40    16    24 1   
    41    17    42 1   
    42    17    43 1   
    43    18    19 1   
    44    18    24 1   
    45    18    44 1   
    46    18    45 1   
    47    19    21 1   
    48    19    48 2   
    49    21    47 1   
    50    34    47 1   
    51    35    47 1   
@<TRIPOS>SUBSTRUCTURE
     1 J50         1 TEMP              0 ****  ****    0 ROOT
