@<TRIPOS>MOLECULE
J50
   48    51     1     0     0
SMALL
abcg2


@<TRIPOS>ATOM
      1 C17        -38.5110    11.5030    18.7240 ca         1 J50      -0.123500
      2 C12        -39.5880    12.3910    15.4360 cc         1 J50       0.107300
      3 C14        -38.9680    11.4550    17.3460 cc         1 J50       0.199500
      4 C15        -39.2220    10.4390    16.4660 cd         1 J50      -0.167000
      5 C16        -39.6170    11.0470    15.2360 cd         1 J50      -0.142000
      6 C19        -37.8600    12.7600    20.6900 ca         1 J50      -0.111000
      7 C20        -37.6010    11.5780    21.3770 ca         1 J50      -0.100000
      8 C21        -37.8000    10.3570    20.7360 ca         1 J50      -0.111000
      9 C22        -38.2510    10.3160    19.4250 ca         1 J50      -0.089500
     10 C23        -41.0570    18.6010    16.7970 c          1 J50       0.600100
     11 C24        -41.3040    18.4320    18.2890 c3         1 J50       0.042600
     12 C18        -38.3110    12.7270    19.3770 ca         1 J50      -0.089500
     13 C01        -39.7070    18.1100    14.8280 c6         1 J50       0.097500
     14 C03        -38.9810    17.2150    16.9820 c6         1 J50       0.097500
     15 C04        -38.9420    15.7940    16.4230 c6         1 J50      -0.099400
     16 C05        -38.6840    15.7870    14.9160 c5         1 J50       0.291400
     17 C06        -39.6760    16.7180    14.2040 c6         1 J50      -0.099400
     18 C08        -36.7340    15.1340    13.2480 c5         1 J50      -0.026400
     19 C09        -37.8090    14.0820    13.4260 c          1 J50       0.566000
     20 N02        -39.9660    18.0180    16.2630 n          1 J50      -0.407800
     21 N10        -38.7380    14.4370    14.3440 n          1 J50      -0.417800
     22 O13        -39.1990    12.6520    16.7190 os         1 J50      -0.258000
     23 O25        -41.8650    19.2560    16.1360 o          1 J50      -0.592100
     24 S07        -36.9290    16.3210    14.6040 ss         1 J50      -0.423000
     25 H1         -39.1300     9.3850    16.6660 ha         1 J50       0.143000
     26 H2         -39.8800    10.5500    14.3160 ha         1 J50       0.148000
     27 H3         -37.7090    13.7150    21.1780 ha         1 J50       0.115000
     28 H4         -37.2480    11.6060    22.4000 ha         1 J50       0.116000
     29 H5         -37.6020     9.4300    21.2610 ha         1 J50       0.115000
     30 H6         -38.4010     9.3610    18.9400 ha         1 J50       0.117000
     31 H7         -42.3130    18.7650    18.5030 h1         1 J50       0.088200
     32 H8         -41.1590    17.4160    18.6440 h1         1 J50       0.088200
     33 CL1        -40.1950    19.4980    19.2480 cl         1 J50      -0.260000
     34 H10        -40.2300    13.1770    13.5990 h1         1 J50       0.072700
     35 H11        -40.7000    14.1510    14.9860 h1         1 J50       0.072700
     36 H12        -38.5080    13.6510    18.8520 ha         1 J50       0.117000
     37 H13        -38.7470    18.6110    14.6810 h1         1 J50       0.070950
     38 H14        -40.4840    18.7160    14.3740 h1         1 J50       0.070950
     39 H15        -39.2080    17.1830    18.0410 h1         1 J50       0.070950
     40 H16        -38.0050    17.6990    16.8810 h1         1 J50       0.070950
     41 H17        -38.1770    15.2130    16.9340 hc         1 J50       0.068200
     42 H18        -40.6760    16.2790    14.2700 hc         1 J50       0.068200
     43 H19        -39.4150    16.7930    13.1470 hc         1 J50       0.068200
     44 H20        -35.7520    14.6700    13.2950 h1         1 J50       0.102700
     45 H21        -36.8570    15.6040    12.2720 h1         1 J50       0.102700
     46 H22        -39.9070    15.3260    16.6240 hc         1 J50       0.068200
     47 C11        -39.8920    13.5560    14.5630 c3         1 J50       0.089700
     48 O26        -37.8300    13.0360    12.7880 o          1 J50      -0.531000
@<TRIPOS>BOND
     1     1     3 1   
     2     1     9 ar  
     3     1    12 ar  
     4     2     5 2   
     5     2    22 1   
     6     2    47 1   
     7     3     4 2   
     8     3    22 1   
     9     4     5 1   
    10     4    25 1   
    11     5    26 1   
    12     6     7 ar  
    13     6    12 ar  
    14     6    27 1   
    15     7     8 ar  
    16     7    28 1   
    17     8     9 ar  
    18     8    29 1   
    19     9    30 1   
    20    10    11 1   
    21    10    20 1   
    22    10    23 2   
    23    11    31 1   
    24    11    32 1   
    25    11    33 1   
    26    12    36 1   
    27    13    17 1   
    28    13    20 1   
    29    13    37 1   
    30    13    38 1   
    31    14    15 1   
    32    14    20 1   
    33    14    39 1   
    34    14    40 1   
    35    15    16 1   
    36    15    41 1   
    37    15    46 1   
    38    16    17 1   
    39    16    21 1   
    40    16    24 1   
    41    17    42 1   
    42    17    43 1   
    43    18    19 1   
    44    18    24 1   
    45    18    44 1   
    46    18    45 1   
    47    19    21 1   
    48    19    48 2   
    49    21    47 1   
    50    34    47 1   
    51    35    47 1   
@<TRIPOS>SUBSTRUCTURE
     1 J50         1 TEMP              0 ****  ****    0 ROOT
