@<TRIPOS>MOLECULE
J51
   25    25     1     0     0
SMALL
bcc


@<TRIPOS>ATOM
      1 N1          -2.4350     0.3960    -0.0010 ns         1 J51      -0.613500
      2 C4           0.7260    -1.2080    -0.0620 c3         1 J51       0.207700
      3 C5           2.0240    -0.4610    -0.0480 ca         1 J51      -0.104300
      4 C6           2.6500    -0.1100    -1.2400 ca         1 J51      -0.101500
      5 C7           3.8420     0.6000    -1.2270 ca         1 J51      -0.133500
      6 C8           4.4180     0.9690    -0.0180 ca         1 J51      -0.114000
      7 C10          2.6070    -0.0880     1.1590 ca         1 J51      -0.101500
      8 C1          -4.4520     1.6980     0.0250 c3         1 J51      -0.186100
      9 C2          -3.8140     0.3390     0.1010 c          1 J51       0.686100
     10 O1          -4.4290    -0.6910     0.2340 o          1 J51      -0.516100
     11 C3          -1.5710    -0.6780     0.0080 c          1 J51       0.759100
     12 O2          -1.8830    -1.8370     0.0580 o          1 J51      -0.525000
     13 O3          -0.3240    -0.2260    -0.0530 os         1 J51      -0.440900
     14 C9           3.7990     0.6220     1.1760 ca         1 J51      -0.133500
     15 H1          -2.0190     1.3120    -0.0890 hn         1 J51       0.330500
     16 H2           0.6400    -1.8310    -0.9550 h1         1 J51       0.059700
     17 H3           0.6360    -1.8530     0.8140 h1         1 J51       0.059700
     18 H4           2.2060    -0.3970    -2.1860 ha         1 J51       0.133500
     19 H5           4.3240     0.8620    -2.1610 ha         1 J51       0.134000
     20 H6           5.3500     1.5210    -0.0070 ha         1 J51       0.132000
     21 H7           2.1310    -0.3600     2.0940 ha         1 J51       0.133500
     22 H8          -4.0460     2.3610     0.7900 hc         1 J51       0.067033
     23 H9          -4.2470     2.1570    -0.9440 hc         1 J51       0.067033
     24 H10         -5.5270     1.6190     0.1580 hc         1 J51       0.067033
     25 H11          4.2470     0.9000     2.1210 ha         1 J51       0.134000
@<TRIPOS>BOND
     1     1     9 1   
     2     1    11 1   
     3     1    15 1   
     4     2     3 1   
     5     2    13 1   
     6     2    16 1   
     7     2    17 1   
     8     3     4 ar  
     9     3     7 ar  
    10     4     5 ar  
    11     4    18 1   
    12     5     6 ar  
    13     5    19 1   
    14     6    14 ar  
    15     6    20 1   
    16     7    14 ar  
    17     7    21 1   
    18     8     9 1   
    19     8    22 1   
    20     8    23 1   
    21     8    24 1   
    22     9    10 2   
    23    11    12 2   
    24    11    13 1   
    25    14    25 1   
@<TRIPOS>SUBSTRUCTURE
     1 J51         1 TEMP              0 ****  ****    0 ROOT
