@<TRIPOS>MOLECULE
J51
   25    25     1     0     0
SMALL
No Charge or Current Charge


@<TRIPOS>ATOM
      1 N1          -2.4940     0.3050     0.0120 ns         1 J51      -0.479500
      2 C4           0.7130    -1.2090    -0.0030 c3         1 J51       0.230900
      3 C5           2.0270    -0.4400    -0.0210 ca         1 J51      -0.104300
      4 C6           2.6290    -0.0890    -1.2460 ca         1 J51      -0.083500
      5 C7           3.8430     0.6200    -1.2620 ca         1 J51      -0.115500
      6 C8           4.4610     0.9850    -0.0540 ca         1 J51      -0.096000
      7 C10          2.6510    -0.0700     1.1880 ca         1 J51      -0.083500
      8 C1          -4.4660     1.7270     0.0190 c3         1 J51      -0.186100
      9 C2          -3.8600     0.3290     0.0240 c          1 J51       0.619100
     10 O1          -4.5530    -0.6770     0.0380 o          1 J51      -0.516100
     11 C3          -1.6360    -0.7470     0.0130 c          1 J51       0.643100
     12 O2          -1.9430    -1.9290     0.0250 o          1 J51      -0.476000
     13 O3          -0.3660    -0.2590    -0.0020 os         1 J51      -0.464100
     14 C9           3.8640     0.6400     1.1710 ca         1 J51      -0.115500
     15 H1          -2.0400     1.2050     0.0020 hn         1 J51       0.330500
     16 H2           0.6570    -1.8620    -0.8850 h1         1 J51       0.059700
     17 H3           0.6730    -1.8470     0.8900 h1         1 J51       0.059700
     18 H4           2.1560    -0.3650    -2.1860 ha         1 J51       0.115500
     19 H5           4.3030     0.8880    -2.2100 ha         1 J51       0.116000
     20 H6           5.4000     1.5340    -0.0660 ha         1 J51       0.114000
     21 H7           2.1940    -0.3310     2.1400 ha         1 J51       0.115500
     22 H8          -4.0620     2.2940     0.8650 hc         1 J51       0.067033
     23 H9          -4.0770     2.2820    -0.8420 hc         1 J51       0.067033
     24 H10         -5.5610     1.7110     0.0290 hc         1 J51       0.067033
     25 H11          4.3410     0.9230     2.1070 ha         1 J51       0.116000
@<TRIPOS>BOND
     1     1     9 1   
     2     1    11 1   
     3     1    15 1   
     4     2     3 1   
     5     2    13 1   
     6     2    16 1   
     7     2    17 1   
     8     3     4 ar  
     9     3     7 ar  
    10     4     5 ar  
    11     4    18 1   
    12     5     6 ar  
    13     5    19 1   
    14     6    14 ar  
    15     6    20 1   
    16     7    14 ar  
    17     7    21 1   
    18     8     9 1   
    19     8    22 1   
    20     8    23 1   
    21     8    24 1   
    22     9    10 2   
    23    11    12 2   
    24    11    13 1   
    25    14    25 1   
@<TRIPOS>SUBSTRUCTURE
     1 J51         1 TEMP              0 ****  ****    0 ROOT
