@<TRIPOS>MOLECULE
J53
   80    84     1     0     0
SMALL
bcc


@<TRIPOS>ATOM
      1 O4          -6.2340     2.7720    -2.4010 o          1 J53      -0.841800
      2 C31         -5.4020     3.2120    -1.5800 c          1 J53       0.926600
      3 O3          -4.2390     3.5820    -1.8400 o          1 J53      -0.841800
      4 C29         -5.8820     3.3360    -0.1220 c3         1 J53      -0.187700
      5 C30         -6.9570     4.4250    -0.0280 c3         1 J53      -0.059400
      6 C32         -7.3420     4.8080     1.3960 c3         1 J53      -0.088100
      7 C26         -6.4010     1.9890     0.3960 c3         1 J53      -0.007100
      8 C25         -5.3590     0.9060     0.3660 ca         1 J53      -0.071300
      9 C24         -5.2490     0.0200    -0.6970 ca         1 J53      -0.054000
     10 C23         -4.2680    -0.9670    -0.7250 ca         1 J53      -0.221000
     11 C21         -3.3650    -1.0820     0.3260 ca         1 J53       0.135100
     12 O1          -2.3920    -2.0110     0.3910 os         1 J53      -0.332900
     13 C34         -2.1260    -2.8220    -0.7400 c3         1 J53       0.145400
     14 C33         -0.8290    -3.5650    -0.4970 c3         1 J53      -0.086400
     15 C28         -0.4830    -4.4940    -1.6540 c3         1 J53      -0.073400
     16 C27          0.8490    -5.2020    -1.4480 c3         1 J53      -0.087100
     17 C22         -4.4390     0.7740     1.4060 ca         1 J53      -0.086000
     18 C20         -3.4490    -0.1960     1.4110 ca         1 J53      -0.169300
     19 C19         -2.4940    -0.3050     2.5680 c3         1 J53       0.165300
     20 N           -1.1190    -0.1260     2.1580 ns         1 J53      -0.550900
     21 C3          -0.1360    -0.9940     2.4480 c          1 J53       0.685700
     22 O2          -0.2620    -1.9200     3.2390 o          1 J53      -0.622100
     23 C1           1.1640    -0.7480     1.7570 ca         1 J53      -0.145600
     24 C4           1.2400    -0.3040     0.4390 ca         1 J53      -0.092000
     25 C8           2.4690    -0.1360    -0.1750 ca         1 J53      -0.141000
     26 C6           3.6670    -0.3770     0.5030 ca         1 J53      -0.055300
     27 C5           3.5740    -0.8240     1.8210 ca         1 J53      -0.141000
     28 C2           2.3450    -1.0240     2.4330 ca         1 J53      -0.092000
     29 C7           4.9940    -0.1750    -0.2040 c6         1 J53       0.001300
     30 C41          6.1950    -0.3160     0.7450 c6         1 J53      -0.062067
     31 C37          7.5120    -0.1080    -0.0040 c6         1 J53      -0.059700
     32 C40          7.6360    -1.1620    -1.1050 c6         1 J53      -0.067400
     33 C39          7.5400     1.2900    -0.6200 c6         1 J53      -0.067400
     34 C38          6.3700     1.4300    -1.5930 c6         1 J53      -0.059700
     35 C9           5.0540     1.2310    -0.8390 c6         1 J53      -0.062067
     36 C42          6.4870     0.3780    -2.6970 c6         1 J53      -0.067400
     37 C12          6.4630    -1.0200    -2.0770 c6         1 J53      -0.059700
     38 C11          5.1460    -1.2240    -1.3260 c6         1 J53      -0.062067
     39 H2          -5.0330     3.6390     0.5020 hc         1 J53       0.033700
     40 H3          -6.5960     5.3220    -0.5410 hc         1 J53       0.040700
     41 H4          -7.8450     4.0980    -0.5780 hc         1 J53       0.040700
     42 H5          -8.0790     5.6120     1.4010 hc         1 J53       0.012367
     43 H6          -7.7740     3.9710     1.9460 hc         1 J53       0.012367
     44 H7          -6.4730     5.1560     1.9580 hc         1 J53       0.012367
     45 H8          -6.7600     2.1020     1.4220 hc         1 J53       0.030700
     46 H9          -7.2650     1.6910    -0.2030 hc         1 J53       0.030700
     47 H10         -5.9370     0.0970    -1.5290 ha         1 J53       0.157000
     48 H11         -4.2350    -1.6420    -1.5700 ha         1 J53       0.125000
     49 H12         -2.9500    -3.5270    -0.9060 h1         1 J53       0.030200
     50 H13         -2.0380    -2.2030    -1.6410 h1         1 J53       0.030200
     51 H14         -0.0240    -2.8370    -0.3580 hc         1 J53       0.056200
     52 H15         -0.9000    -4.1420     0.4300 hc         1 J53       0.056200
     53 H16         -1.2770    -5.2370    -1.7770 hc         1 J53       0.035200
     54 H17         -0.4530    -3.9230    -2.5870 hc         1 J53       0.035200
     55 H18          1.0720    -5.8750    -2.2760 hc         1 J53       0.030033
     56 H19          1.6690    -4.4870    -1.3720 hc         1 J53       0.030033
     57 H20          0.8420    -5.7960    -0.5320 hc         1 J53       0.030033
     58 H21         -4.4950     1.4550     2.2500 ha         1 J53       0.122000
     59 H22         -2.7600     0.4410     3.3220 h1         1 J53       0.053700
     60 H23         -2.5720    -1.2790     3.0510 h1         1 J53       0.053700
     61 H24         -0.9170     0.6540     1.5540 hn         1 J53       0.321500
     62 H25          0.3380    -0.1160    -0.1320 ha         1 J53       0.146500
     63 H26          2.4890     0.1890    -1.2070 ha         1 J53       0.129000
     64 H27          4.4670    -1.0290     2.3950 ha         1 J53       0.129000
     65 H28          2.3120    -1.3840     3.4530 ha         1 J53       0.146500
     66 H29          6.1130     0.4110     1.5610 hc         1 J53       0.044200
     67 H30          6.2000    -1.3090     1.2040 hc         1 J53       0.044200
     68 H31          8.3390    -0.2160     0.7040 hc         1 J53       0.045700
     69 H32          8.5850    -1.0460    -1.6380 hc         1 J53       0.037367
     70 H33          7.6400    -2.1640    -0.6630 hc         1 J53       0.037367
     71 H34          7.4640     2.0470     0.1680 hc         1 J53       0.037367
     72 H35          8.4910     1.4610    -1.1350 hc         1 J53       0.037367
     73 H36          6.3760     2.4300    -2.0370 hc         1 J53       0.045700
     74 H37          4.2200     1.3750    -1.5320 hc         1 J53       0.044200
     75 H38          4.9470     1.9900    -0.0560 hc         1 J53       0.044200
     76 H39          5.6640     0.4880    -3.4100 hc         1 J53       0.037367
     77 H40          7.4140     0.5200    -3.2630 hc         1 J53       0.037367
     78 H41          6.5430    -1.7750    -2.8650 hc         1 J53       0.045700
     79 H42          5.1070    -2.2290    -0.8930 hc         1 J53       0.044200
     80 H43          4.3040    -1.1490    -2.0210 hc         1 J53       0.044200
@<TRIPOS>BOND
     1     1     2 1   
     2     2     3 1   
     3     2     4 1   
     4     4     5 1   
     5     4     7 1   
     6     4    39 1   
     7     5     6 1   
     8     5    40 1   
     9     5    41 1   
    10     6    42 1   
    11     6    43 1   
    12     6    44 1   
    13     7     8 1   
    14     7    45 1   
    15     7    46 1   
    16     8     9 ar  
    17     8    17 ar  
    18     9    10 ar  
    19     9    47 1   
    20    10    11 ar  
    21    10    48 1   
    22    11    12 1   
    23    11    18 ar  
    24    12    13 1   
    25    13    14 1   
    26    13    49 1   
    27    13    50 1   
    28    14    15 1   
    29    14    51 1   
    30    14    52 1   
    31    15    16 1   
    32    15    53 1   
    33    15    54 1   
    34    16    55 1   
    35    16    56 1   
    36    16    57 1   
    37    17    18 ar  
    38    17    58 1   
    39    18    19 1   
    40    19    20 1   
    41    19    59 1   
    42    19    60 1   
    43    20    21 1   
    44    20    61 1   
    45    21    22 2   
    46    21    23 1   
    47    23    24 ar  
    48    23    28 ar  
    49    24    25 ar  
    50    24    62 1   
    51    25    26 ar  
    52    25    63 1   
    53    26    27 ar  
    54    26    29 1   
    55    27    28 ar  
    56    27    64 1   
    57    28    65 1   
    58    29    30 1   
    59    29    35 1   
    60    29    38 1   
    61    30    31 1   
    62    30    66 1   
    63    30    67 1   
    64    31    32 1   
    65    31    33 1   
    66    31    68 1   
    67    32    37 1   
    68    32    69 1   
    69    32    70 1   
    70    33    34 1   
    71    33    71 1   
    72    33    72 1   
    73    34    35 1   
    74    34    36 1   
    75    34    73 1   
    76    35    74 1   
    77    35    75 1   
    78    36    37 1   
    79    36    76 1   
    80    36    77 1   
    81    37    38 1   
    82    37    78 1   
    83    38    79 1   
    84    38    80 1   
@<TRIPOS>SUBSTRUCTURE
     1 J53         1 TEMP              0 ****  ****    0 ROOT
