@<TRIPOS>MOLECULE
J53
   80    84     1     0     0
SMALL
No Charge or Current Charge


@<TRIPOS>ATOM
      1 O4          -6.6550     2.9400    -2.3520 o          1 J53      -0.736500
      2 C31         -5.9380     3.2690    -1.4180 c          1 J53       0.716000
      3 O3          -4.8080     3.7100    -1.5650 o          1 J53      -0.736500
      4 C29         -6.4990     3.1640     0.0220 c3         1 J53      -0.187700
      5 C30         -7.7090     4.1250     0.2050 c3         1 J53      -0.059400
      6 C32         -8.1570     4.3290     1.6680 c3         1 J53      -0.088100
      7 C26         -6.8280     1.6910     0.3880 c3         1 J53      -0.007100
      8 C25         -5.6070     0.7800     0.3310 ca         1 J53      -0.071300
      9 C24         -5.4090    -0.0790    -0.7650 ca         1 J53      -0.036000
     10 C23         -4.2860    -0.9210    -0.8120 ca         1 J53      -0.203000
     11 C21         -3.3470    -0.9130     0.2410 ca         1 J53       0.135100
     12 O1          -2.2280    -1.7240     0.2180 os         1 J53      -0.356100
     13 C34         -1.7920    -2.4130    -0.9650 c3         1 J53       0.168600
     14 C33         -0.4220    -3.0430    -0.6440 c3         1 J53      -0.086400
     15 C28          0.2580    -3.6840    -1.8720 c3         1 J53      -0.073400
     16 C27          1.6550    -4.2530    -1.5530 c3         1 J53      -0.087100
     17 C22         -4.6700     0.7890     1.3800 ca         1 J53      -0.068000
     18 C20         -3.5380    -0.0500     1.3460 ca         1 J53      -0.169300
     19 C19         -2.5420    -0.0060     2.5030 c3         1 J53       0.165300
     20 N           -1.1820     0.2120     2.0250 ns         1 J53      -0.483900
     21 C3          -0.0510     0.0280     2.7820 c          1 J53       0.618700
     22 O2          -0.1160    -0.1150     3.9960 o          1 J53      -0.622100
     23 C1           1.2620    -0.0180     2.0230 ca         1 J53      -0.145600
     24 C4           1.3320     0.1750     0.6240 ca         1 J53      -0.074000
     25 C8           2.5560     0.0680    -0.0540 ca         1 J53      -0.123000
     26 C6           3.7540    -0.2280     0.6320 ca         1 J53      -0.055300
     27 C5           3.6840    -0.3990     2.0340 ca         1 J53      -0.123000
     28 C2           2.4590    -0.2960     2.7160 ca         1 J53      -0.074000
     29 C7           5.0830    -0.3640    -0.1690 c6         1 J53       0.001300
     30 C41          6.3260    -0.6920     0.7340 c6         1 J53      -0.062067
     31 C37          7.6240    -0.8220    -0.1130 c6         1 J53      -0.059700
     32 C40          7.4500    -1.9660    -1.1500 c6         1 J53      -0.067400
     33 C39          7.8910     0.5170    -0.8550 c6         1 J53      -0.067400
     34 C38          6.6880     0.8430    -1.7840 c6         1 J53      -0.059700
     35 C9           5.3930     0.9720    -0.9300 c6         1 J53      -0.062067
     36 C42          6.5100    -0.3020    -2.8220 c6         1 J53      -0.067400
     37 C12          6.2460    -1.6430    -2.0790 c6         1 J53      -0.059700
     38 C11          4.9510    -1.5150    -1.2260 c6         1 J53      -0.062067
     39 H2          -5.7110     3.5060     0.7050 hc         1 J53       0.033700
     40 H3          -7.4390     5.1060    -0.2050 hc         1 J53       0.040700
     41 H4          -8.5600     3.7650    -0.3860 hc         1 J53       0.040700
     42 H5          -8.9400     5.0950     1.7190 hc         1 J53       0.012367
     43 H6          -8.5650     3.4050     2.0930 hc         1 J53       0.012367
     44 H7          -7.3170     4.6590     2.2900 hc         1 J53       0.012367
     45 H8          -7.2460     1.6490     1.4010 hc         1 J53       0.030700
     46 H9          -7.6180     1.3170    -0.2760 hc         1 J53       0.030700
     47 H10         -6.1270    -0.0920    -1.5830 ha         1 J53       0.139000
     48 H11         -4.1640    -1.5740    -1.6710 ha         1 J53       0.107000
     49 H12         -2.5060    -3.1950    -1.2530 h1         1 J53       0.030200
     50 H13         -1.6810    -1.7080    -1.7990 h1         1 J53       0.030200
     51 H14          0.2380    -2.2690    -0.2360 hc         1 J53       0.056200
     52 H15         -0.5510    -3.7990     0.1400 hc         1 J53       0.056200
     53 H16         -0.3780    -4.4870    -2.2640 hc         1 J53       0.035200
     54 H17          0.3550    -2.9340    -2.6670 hc         1 J53       0.035200
     55 H18          2.1030    -4.6930    -2.4530 hc         1 J53       0.030033
     56 H19          2.3220    -3.4630    -1.1890 hc         1 J53       0.030033
     57 H20          1.5900    -5.0340    -0.7860 hc         1 J53       0.030033
     58 H21         -4.8240     1.4550     2.2270 ha         1 J53       0.104000
     59 H22         -2.8020     0.7990     3.2020 h1         1 J53       0.053700
     60 H23         -2.5800    -0.9580     3.0480 h1         1 J53       0.053700
     61 H24         -1.0540     0.2820     1.0270 hn         1 J53       0.321500
     62 H25          0.4440     0.3980     0.0370 ha         1 J53       0.128500
     63 H26          2.5610     0.2100    -1.1310 ha         1 J53       0.111000
     64 H27          4.5670    -0.6250     2.6230 ha         1 J53       0.111000
     65 H28          2.4430    -0.4500     3.7930 ha         1 J53       0.128500
     66 H29          6.4660     0.0940     1.4900 hc         1 J53       0.044200
     67 H30          6.1600    -1.6300     1.2830 hc         1 J53       0.044200
     68 H31          8.4720    -1.0510     0.5460 hc         1 J53       0.045700
     69 H32          8.3670    -2.0840    -1.7440 hc         1 J53       0.037367
     70 H33          7.2870    -2.9240    -0.6360 hc         1 J53       0.037367
     71 H34          8.0420     1.3300    -0.1300 hc         1 J53       0.037367
     72 H35          8.8170     0.4490    -1.4420 hc         1 J53       0.037367
     73 H36          6.8770     1.7890    -2.3090 hc         1 J53       0.045700
     74 H37          4.5590     1.2490    -1.5880 hc         1 J53       0.044200
     75 H38          5.4990     1.7960    -0.2110 hc         1 J53       0.044200
     76 H39          5.6770    -0.0730    -3.5000 hc         1 J53       0.037367
     77 H40          7.4070    -0.3870    -3.4500 hc         1 J53       0.037367
     78 H41          6.1230    -2.4510    -2.8140 hc         1 J53       0.045700
     79 H42          4.7430    -2.4670    -0.7180 hc         1 J53       0.044200
     80 H43          4.0990    -1.3360    -1.8940 hc         1 J53       0.044200
@<TRIPOS>BOND
     1     1     2 1   
     2     2     3 1   
     3     2     4 1   
     4     4     5 1   
     5     4     7 1   
     6     4    39 1   
     7     5     6 1   
     8     5    40 1   
     9     5    41 1   
    10     6    42 1   
    11     6    43 1   
    12     6    44 1   
    13     7     8 1   
    14     7    45 1   
    15     7    46 1   
    16     8     9 ar  
    17     8    17 ar  
    18     9    10 ar  
    19     9    47 1   
    20    10    11 ar  
    21    10    48 1   
    22    11    12 1   
    23    11    18 ar  
    24    12    13 1   
    25    13    14 1   
    26    13    49 1   
    27    13    50 1   
    28    14    15 1   
    29    14    51 1   
    30    14    52 1   
    31    15    16 1   
    32    15    53 1   
    33    15    54 1   
    34    16    55 1   
    35    16    56 1   
    36    16    57 1   
    37    17    18 ar  
    38    17    58 1   
    39    18    19 1   
    40    19    20 1   
    41    19    59 1   
    42    19    60 1   
    43    20    21 1   
    44    20    61 1   
    45    21    22 2   
    46    21    23 1   
    47    23    24 ar  
    48    23    28 ar  
    49    24    25 ar  
    50    24    62 1   
    51    25    26 ar  
    52    25    63 1   
    53    26    27 ar  
    54    26    29 1   
    55    27    28 ar  
    56    27    64 1   
    57    28    65 1   
    58    29    30 1   
    59    29    35 1   
    60    29    38 1   
    61    30    31 1   
    62    30    66 1   
    63    30    67 1   
    64    31    32 1   
    65    31    33 1   
    66    31    68 1   
    67    32    37 1   
    68    32    69 1   
    69    32    70 1   
    70    33    34 1   
    71    33    71 1   
    72    33    72 1   
    73    34    35 1   
    74    34    36 1   
    75    34    73 1   
    76    35    74 1   
    77    35    75 1   
    78    36    37 1   
    79    36    76 1   
    80    36    77 1   
    81    37    38 1   
    82    37    78 1   
    83    38    79 1   
    84    38    80 1   
@<TRIPOS>SUBSTRUCTURE
     1 J53         1 TEMP              0 ****  ****    0 ROOT
