@<TRIPOS>MOLECULE
J54
   30    30     1     0     0
SMALL
abcg2


@<TRIPOS>ATOM
      1 O02         -5.3420     0.2310    -1.0770 o          1 J54      -0.714500
      2 C06         -4.2050     0.6260    -1.4190 c          1 J54       0.695000
      3 C05         -3.0400    -0.2620    -0.9280 c3         1 J54       0.000300
      4 O18         -3.5520    -1.3650    -0.2200 oh         1 J54      -0.724000
      5 C04         -2.0950     0.5540    -0.0560 c3         1 J54       0.100000
      6 N02         -1.0290    -0.2800     0.4500 ns         1 J54      -0.495900
      7 C03          0.1540     0.2410     0.8700 c          1 J54       0.631100
      8 O01          0.4770     1.4100     0.6860 o          1 J54      -0.649100
      9 N01          0.9700    -0.6390     1.5150 ns         1 J54      -0.532900
     10 C02          2.3190    -0.2790     1.8600 c3         1 J54       0.166300
     11 C01          3.2710    -0.1560     0.6920 ca         1 J54      -0.090300
     12 CE1          3.1090    -0.9140    -0.4640 ca         1 J54      -0.097500
     13 CD1          4.0210    -0.8190    -1.5080 ca         1 J54      -0.112000
     14 CG           5.1120     0.0350    -1.4080 ca         1 J54      -0.118000
     15 CD2          5.2820     0.7940    -0.2580 ca         1 J54      -0.112000
     16 CE2          4.3660     0.6990     0.7810 ca         1 J54      -0.097500
     17 OXT         -3.9190     1.6320    -2.0850 o          1 J54      -0.714500
     18 H05         -2.4760    -0.6150    -1.8030 h1         1 J54       0.039700
     19 H18         -4.5100    -1.1770    -0.2120 ho         1 J54       0.477000
     20 H041        -1.6670     1.3550    -0.6550 h1         1 J54       0.055700
     21 H042        -2.6580     1.0210     0.7630 h1         1 J54       0.055700
     22 H02         -1.3130    -1.1710     0.8280 hn         1 J54       0.303500
     23 H01          0.7350    -1.6170     1.5180 hn         1 J54       0.300500
     24 H021         2.3220     0.6530     2.4280 h1         1 J54       0.050200
     25 H022         2.6890    -1.0480     2.5420 h1         1 J54       0.050200
     26 HE1          2.2620    -1.5820    -0.5580 ha         1 J54       0.110500
     27 HE2          4.5030     1.3020     1.6720 ha         1 J54       0.110500
     28 HD1          3.8780    -1.4140    -2.4010 ha         1 J54       0.105000
     29 HG           5.8210     0.1120    -2.2230 ha         1 J54       0.103000
     30 HD2          6.1260     1.4670    -0.1710 ha         1 J54       0.105000
@<TRIPOS>BOND
     1     1     2 1   
     2     2     3 1   
     3     2    17 1   
     4     3     4 1   
     5     3     5 1   
     6     3    18 1   
     7     4    19 1   
     8     5     6 1   
     9     5    20 1   
    10     5    21 1   
    11     6     7 1   
    12     6    22 1   
    13     7     8 2   
    14     7     9 1   
    15     9    10 1   
    16     9    23 1   
    17    10    11 1   
    18    10    24 1   
    19    10    25 1   
    20    11    12 ar  
    21    11    16 ar  
    22    12    13 ar  
    23    12    26 1   
    24    13    14 ar  
    25    13    28 1   
    26    14    15 ar  
    27    14    29 1   
    28    15    16 ar  
    29    15    30 1   
    30    16    27 1   
@<TRIPOS>SUBSTRUCTURE
     1 J54         1 TEMP              0 ****  ****    0 ROOT
