@<TRIPOS>MOLECULE
J54
   30    30     1     0     0
SMALL
No Charge or Current Charge


@<TRIPOS>ATOM
      1 O02         -5.5100     0.5190    -0.8280 o          1 J54      -0.714500
      2 C06         -4.4370     1.0440    -1.0980 c          1 J54       0.695000
      3 C05         -3.1440     0.1690    -0.9500 c3         1 J54       0.000300
      4 O18         -3.4500    -1.2400    -0.7270 oh         1 J54      -0.724000
      5 C04         -2.2530     0.7170     0.1920 c3         1 J54       0.100000
      6 N02         -1.0960    -0.1450     0.4470 ns         1 J54      -0.495900
      7 C03          0.0640     0.2640     1.0410 c          1 J54       0.631100
      8 O01          0.2570     1.4010     1.4360 o          1 J54      -0.649100
      9 N01          0.9800    -0.7460     1.1480 ns         1 J54      -0.532900
     10 C02          2.3180    -0.5960     1.7190 c3         1 J54       0.166300
     11 C01          3.3710    -0.4100     0.6360 ca         1 J54      -0.090300
     12 CE1          4.0670    -1.5220     0.1210 ca         1 J54      -0.097500
     13 CD1          5.0390    -1.3480    -0.8800 ca         1 J54      -0.112000
     14 CG           5.3190    -0.0630    -1.3730 ca         1 J54      -0.118000
     15 CD2          4.6270     1.0490    -0.8650 ca         1 J54      -0.112000
     16 CE2          3.6550     0.8760     0.1360 ca         1 J54      -0.097500
     17 OXT         -4.3310     2.1800    -1.5390 o          1 J54      -0.714500
     18 H05         -2.5840     0.2720    -1.8890 h1         1 J54       0.039700
     19 H18         -4.4330    -1.2690    -0.6140 ho         1 J54       0.477000
     20 H041        -1.9050     1.7230    -0.0740 h1         1 J54       0.055700
     21 H042        -2.8430     0.7950     1.1150 h1         1 J54       0.055700
     22 H02         -1.1630    -1.1120     0.1590 hn         1 J54       0.303500
     23 H01          0.7160    -1.6500     0.7810 hn         1 J54       0.300500
     24 H021         2.3370     0.2590     2.4080 h1         1 J54       0.050200
     25 H022         2.5470    -1.4950     2.3060 h1         1 J54       0.050200
     26 HE1          3.8560    -2.5210     0.4970 ha         1 J54       0.110500
     27 HE2          3.1200     1.7410     0.5230 ha         1 J54       0.110500
     28 HD1          5.5740    -2.2100    -1.2730 ha         1 J54       0.105000
     29 HG           6.0710     0.0710    -2.1480 ha         1 J54       0.103000
     30 HD2          4.8410     2.0450    -1.2480 ha         1 J54       0.105000
@<TRIPOS>BOND
     1     1     2 1   
     2     2     3 1   
     3     2    17 1   
     4     3     4 1   
     5     3     5 1   
     6     3    18 1   
     7     4    19 1   
     8     5     6 1   
     9     5    20 1   
    10     5    21 1   
    11     6     7 1   
    12     6    22 1   
    13     7     8 2   
    14     7     9 1   
    15     9    10 1   
    16     9    23 1   
    17    10    11 1   
    18    10    24 1   
    19    10    25 1   
    20    11    12 ar  
    21    11    16 ar  
    22    12    13 ar  
    23    12    26 1   
    24    13    14 ar  
    25    13    28 1   
    26    14    15 ar  
    27    14    29 1   
    28    15    16 ar  
    29    15    30 1   
    30    16    27 1   
@<TRIPOS>SUBSTRUCTURE
     1 J54         1 TEMP              0 ****  ****    0 ROOT
