@<TRIPOS>MOLECULE
J55
   46    49     1     0     0
SMALL
No Charge or Current Charge


@<TRIPOS>ATOM
      1 O2           2.8580     1.6440    -1.3760 o          1 J55      -0.497100
      2 C2           1.9400     2.0240    -0.6580 c          1 J55       0.627100
      3 N1           1.5490     1.4000     0.5100 ns         1 J55      -0.315900
      4 C1           1.9960     0.2070     1.0800 ca         1 J55       0.506900
      5 N            2.2170    -0.8020     0.2140 nb         1 J55      -0.654000
      6 C15          2.0900     0.0640     2.4740 ca         1 J55      -0.204000
      7 C16          2.4750    -1.1750     3.0090 ca         1 J55      -0.055000
      8 C17          2.7260    -2.2250     2.1110 ca         1 J55      -0.177000
      9 C            2.5820    -1.9920     0.7330 ca         1 J55       0.443200
     10 Br           2.8910    -3.4000    -0.5210 br         1 J55      -0.150200
     11 C3           1.0420     3.2900    -0.8960 c5         1 J55       0.158700
     12 N2          -0.3930     3.2090    -0.4550 n          1 J55      -0.439800
     13 C5          -0.8940     4.3590     0.3530 c5         1 J55       0.107000
     14 C4           0.0930     5.5170     0.0610 c5         1 J55       0.034600
     15 S            1.7450     4.7100     0.0820 ss         1 J55      -0.386000
     16 C6          -1.2160     2.1280    -0.8440 c          1 J55       0.583100
     17 O1          -0.8010     1.3100    -1.6550 o          1 J55      -0.535100
     18 C7          -2.6160     2.0010    -0.2150 c3         1 J55       0.020600
     19 N3          -3.0950     0.6100    -0.1430 na         1 J55      -0.010100
     20 C11         -2.5140    -0.3400     0.6810 ca         1 J55       0.371500
     21 N6          -1.5100    -0.2610     1.5800 nb         1 J55      -0.688000
     22 C12         -1.1880    -1.4050     2.2340 ca         1 J55       0.381900
     23 C13         -1.8470    -2.6310     2.0120 ca         1 J55      -0.200000
     24 C14         -2.8950    -2.6930     1.0770 ca         1 J55       0.023000
     25 C10         -3.2040    -1.4920     0.4210 ca         1 J55      -0.216900
     26 C8          -4.2080    -1.1610    -0.5780 cc         1 J55       0.317900
     27 N4          -4.1430     0.1400    -0.9270 nd         1 J55      -0.500100
     28 C9          -5.1980    -2.1470    -1.1530 c          1 J55       0.560800
     29 O           -5.2790    -3.3310    -0.8540 o          1 J55      -0.602100
     30 N5          -6.0610    -1.6520    -2.0780 nt         1 J55      -0.593000
     31 H1           0.8220     1.8690     1.0320 hn         1 J55       0.164000
     32 H2           1.8680     0.9050     3.1260 ha         1 J55       0.127000
     33 H3           2.5670    -1.3210     4.0840 ha         1 J55       0.121000
     34 H4           3.0210    -3.2060     2.4700 ha         1 J55       0.141000
     35 H5           1.0340     3.5310    -1.9650 h2         1 J55       0.119700
     36 H6          -1.9180     4.6450     0.0790 h1         1 J55       0.059200
     37 H7          -0.8870     4.1040     1.4220 h1         1 J55       0.059200
     38 H8          -0.0910     5.9520    -0.9300 h1         1 J55       0.088200
     39 H9           0.0310     6.3170     0.8100 h1         1 J55       0.088200
     40 H10         -2.5830     2.3990     0.8040 h1         1 J55       0.086200
     41 H11         -3.3120     2.6090    -0.8040 h1         1 J55       0.086200
     42 H12         -0.3830    -1.3350     2.9630 h4         1 J55       0.019100
     43 H13         -1.5460    -3.5160     2.5660 ha         1 J55       0.129000
     44 H14         -3.4290    -3.6220     0.8860 ha         1 J55       0.148000
     45 H15         -6.0080    -0.6760    -2.3360 hn         1 J55       0.324500
     46 H16         -6.7460    -2.2620    -2.4990 hn         1 J55       0.324500
@<TRIPOS>BOND
     1     1     2 2   
     2     2     3 1   
     3     2    11 1   
     4     3     4 1   
     5     3    31 1   
     6     4     5 ar  
     7     4     6 ar  
     8     5     9 ar  
     9     6     7 ar  
    10     6    32 1   
    11     7     8 ar  
    12     7    33 1   
    13     8     9 ar  
    14     8    34 1   
    15     9    10 1   
    16    11    12 1   
    17    11    15 1   
    18    11    35 1   
    19    12    13 1   
    20    12    16 1   
    21    13    14 1   
    22    13    36 1   
    23    13    37 1   
    24    14    15 1   
    25    14    38 1   
    26    14    39 1   
    27    16    17 2   
    28    16    18 1   
    29    18    19 1   
    30    18    40 1   
    31    18    41 1   
    32    19    20 1   
    33    19    27 1   
    34    20    21 ar  
    35    20    25 ar  
    36    21    22 ar  
    37    22    23 ar  
    38    22    42 1   
    39    23    24 ar  
    40    23    43 1   
    41    24    25 ar  
    42    24    44 1   
    43    25    26 1   
    44    26    27 2   
    45    26    28 1   
    46    28    29 2   
    47    28    30 1   
    48    30    45 1   
    49    30    46 1   
@<TRIPOS>SUBSTRUCTURE
     1 J55         1 TEMP              0 ****  ****    0 ROOT
