@<TRIPOS>MOLECULE
J55
   46    49     1     0     0
SMALL
bcc


@<TRIPOS>ATOM
      1 O2           2.3690     1.3240    -1.5430 o          1 J55      -0.497100
      2 C2           1.6450     1.8300    -0.7200 c          1 J55       0.694100
      3 N1           1.5050     1.4210     0.5720 ns         1 J55      -0.549400
      4 C1           1.9820     0.2600     1.1610 ca         1 J55       0.572200
      5 N            2.3040    -0.7630     0.3880 nb         1 J55      -0.654000
      6 C15          2.0700     0.2070     2.5540 ca         1 J55      -0.287300
      7 C16          2.5120    -0.9670     3.1300 ca         1 J55      -0.073000
      8 C17          2.8590    -2.0480     2.3280 ca         1 J55      -0.260300
      9 C            2.7270    -1.8610     0.9650 ca         1 J55       0.508500
     10 BR           3.1720    -3.2870    -0.2040 br         1 J55      -0.150200
     11 C3           0.8320     3.0870    -1.0480 c5         1 J55       0.110800
     12 N2          -0.4960     3.0710    -0.4620 n          1 J55      -0.506800
     13 C5          -0.8860     4.2320     0.3350 c5         1 J55       0.107000
     14 C4           0.0500     5.3490    -0.0800 c5         1 J55      -0.013300
     15 S            1.6530     4.5360    -0.3080 ss         1 J55      -0.290200
     16 C6          -1.2760     2.0010    -0.7170 c          1 J55       0.650100
     17 O1          -0.9220     1.1070    -1.4620 o          1 J55      -0.535100
     18 C7          -2.6080     1.9460     0.0180 c3         1 J55      -0.008700
     19 N3          -3.0910     0.5990     0.0320 na         1 J55       0.019200
     20 C11         -2.5210    -0.4400     0.6930 ca         1 J55       0.436800
     21 N6          -1.4880    -0.3620     1.5200 nb         1 J55      -0.688000
     22 C12         -1.1210    -1.5220     2.0310 ca         1 J55       0.447200
     23 C13         -1.7480    -2.7500     1.7490 ca         1 J55      -0.283300
     24 C14         -2.8220    -2.8020     0.8860 ca         1 J55       0.005000
     25 C10         -3.2320    -1.5900     0.3240 ca         1 J55      -0.282200
     26 C8          -4.2080    -1.1060    -0.5890 cc         1 J55       0.317900
     27 N4          -4.0850     0.1920    -0.7460 nd         1 J55      -0.500100
     28 C9          -5.2420    -1.8950    -1.2940 c          1 J55       0.627800
     29 O           -5.3170    -3.1020    -1.1090 o          1 J55      -0.602100
     30 N5          -6.0460    -1.2040    -2.1090 nt         1 J55      -0.660000
     31 H1           1.0020     2.0380     1.1920 hn         1 J55       0.330500
     32 H2           1.8010     1.0610     3.1600 ha         1 J55       0.145000
     33 H3           2.5920    -1.0460     4.2060 ha         1 J55       0.139000
     34 H4           3.2110    -2.9770     2.7520 ha         1 J55       0.159000
     35 H5           0.7890     3.1800    -2.1350 h2         1 J55       0.119700
     36 H6          -1.9190     4.5130     0.1290 h1         1 J55       0.059200
     37 H7          -0.7900     4.0260     1.4040 h1         1 J55       0.059200
     38 H8          -0.2700     5.8160    -1.0100 h1         1 J55       0.088200
     39 H9           0.1410     6.1110     0.6910 h1         1 J55       0.088200
     40 H10         -2.5100     2.3070     1.0430 h1         1 J55       0.086200
     41 H11         -3.3470     2.5740    -0.4820 h1         1 J55       0.086200
     42 H12         -0.2820    -1.5010     2.7160 h4         1 J55       0.019100
     43 H13         -1.3720    -3.6470     2.2190 ha         1 J55       0.147000
     44 H14         -3.3170    -3.7340     0.6570 ha         1 J55       0.166000
     45 H15         -5.9460    -0.2110    -2.2330 hn         1 J55       0.324500
     46 H16         -6.7750    -1.6750    -2.6200 hn         1 J55       0.324500
@<TRIPOS>BOND
     1     1     2 2   
     2     2     3 1   
     3     2    11 1   
     4     3     4 1   
     5     3    31 1   
     6     4     5 ar  
     7     4     6 ar  
     8     5     9 ar  
     9     6     7 ar  
    10     6    32 1   
    11     7     8 ar  
    12     7    33 1   
    13     8     9 ar  
    14     8    34 1   
    15     9    10 1   
    16    11    12 1   
    17    11    15 1   
    18    11    35 1   
    19    12    13 1   
    20    12    16 1   
    21    13    14 1   
    22    13    36 1   
    23    13    37 1   
    24    14    15 1   
    25    14    38 1   
    26    14    39 1   
    27    16    17 2   
    28    16    18 1   
    29    18    19 1   
    30    18    40 1   
    31    18    41 1   
    32    19    20 1   
    33    19    27 1   
    34    20    21 ar  
    35    20    25 ar  
    36    21    22 ar  
    37    22    23 ar  
    38    22    42 1   
    39    23    24 ar  
    40    23    43 1   
    41    24    25 ar  
    42    24    44 1   
    43    25    26 1   
    44    26    27 2   
    45    26    28 1   
    46    28    29 2   
    47    28    30 1   
    48    30    45 1   
    49    30    46 1   
@<TRIPOS>SUBSTRUCTURE
     1 J55         1 TEMP              0 ****  ****    0 ROOT
