@<TRIPOS>MOLECULE
J56
   43    46     1     0     0
SMALL
No Charge or Current Charge


@<TRIPOS>ATOM
      1 O1          -1.6020     2.2500     1.2370 o          1 J56      -0.485100
      2 C2          -0.5920     2.2140     0.5420 c          1 J56       0.627100
      3 N1          -0.4180     1.3860    -0.5490 ns         1 J56      -0.325900
      4 C1          -1.2300     0.3610    -1.0380 ca         1 J56       0.502900
      5 N           -1.8170    -0.4080    -0.1020 nb         1 J56      -0.654000
      6 C15         -1.2990     0.0930    -2.4140 ca         1 J56      -0.216000
      7 C16         -2.0570    -1.0010    -2.8590 ca         1 J56      -0.047000
      8 C17         -2.6890    -1.7950    -1.8890 ca         1 J56      -0.176000
      9 C           -2.5370    -1.4630    -0.5330 ca         1 J56       0.449200
     10 Br          -3.3600    -2.5320     0.8200 br         1 J56      -0.148200
     11 C3           0.6970     3.0910     0.7310 c5         1 J56       0.158700
     12 N2           2.0150     2.4400     0.4150 n          1 J56      -0.442800
     13 C5           2.9380     3.2230    -0.4570 c5         1 J56       0.107000
     14 C4           2.4420     4.6860    -0.3570 c5         1 J56       0.035600
     15 S            0.6100     4.5430    -0.4310 ss         1 J56      -0.391000
     16 C6           2.3610     1.1870     0.9710 c          1 J56       0.570100
     17 O            1.6420     0.6840     1.8250 o          1 J56      -0.530100
     18 C7           3.6270     0.4790     0.4580 c3         1 J56       0.019600
     19 N3           3.5660    -0.9860     0.5910 na         1 J56       0.074600
     20 C10          2.7490    -1.7950    -0.1730 ca         1 J56      -0.024200
     21 C11          1.8670    -1.5030    -1.2240 ca         1 J56      -0.128000
     22 C12          1.1630    -2.5830    -1.8010 ca         1 J56      -0.069000
     23 C13          1.3570    -3.9030    -1.3230 ca         1 J56      -0.144000
     24 C14          2.2600    -4.1590    -0.2670 ca         1 J56      -0.031000
     25 C9           2.9400    -3.0620     0.2780 ca         1 J56      -0.221900
     26 C8           3.9180    -2.9590     1.3350 cc         1 J56       0.371800
     27 N4           4.3120    -1.6900     1.5340 nd         1 J56      -0.514100
     28 H1           0.4330     1.5350    -1.0720 hn         1 J56       0.158000
     29 H2          -0.7740     0.7280    -3.1230 ha         1 J56       0.123000
     30 H3          -2.1420    -1.2340    -3.9190 ha         1 J56       0.122000
     31 H4          -3.2820    -2.6590    -2.1760 ha         1 J56       0.142000
     32 H5           0.7500     3.4360     1.7700 h2         1 J56       0.122700
     33 H6           3.9840     3.1450    -0.1300 h1         1 J56       0.058200
     34 H7           2.8790     2.8630    -1.4930 h1         1 J56       0.058200
     35 H8           2.7360     5.1390     0.5990 h1         1 J56       0.089200
     36 H9           2.8260     5.3140    -1.1720 h1         1 J56       0.089200
     37 H10          3.7640     0.7180    -0.6020 h1         1 J56       0.081200
     38 H11          4.4860     0.8690     1.0150 h1         1 J56       0.081200
     39 H12          1.7310    -0.4880    -1.5880 ha         1 J56       0.109000
     40 H13          0.4730    -2.4020    -2.6210 ha         1 J56       0.110000
     41 H14          0.8090    -4.7260    -1.7750 ha         1 J56       0.115000
     42 H15          2.4210    -5.1690     0.1050 ha         1 J56       0.119000
     43 H16          4.3620    -3.7220     1.9620 h4         1 J56       0.051800
@<TRIPOS>BOND
     1     1     2 2   
     2     2     3 1   
     3     2    11 1   
     4     3     4 1   
     5     3    28 1   
     6     4     5 ar  
     7     4     6 ar  
     8     5     9 ar  
     9     6     7 ar  
    10     6    29 1   
    11     7     8 ar  
    12     7    30 1   
    13     8     9 ar  
    14     8    31 1   
    15     9    10 1   
    16    11    12 1   
    17    11    15 1   
    18    11    32 1   
    19    12    13 1   
    20    12    16 1   
    21    13    14 1   
    22    13    33 1   
    23    13    34 1   
    24    14    15 1   
    25    14    35 1   
    26    14    36 1   
    27    16    17 2   
    28    16    18 1   
    29    18    19 1   
    30    18    37 1   
    31    18    38 1   
    32    19    20 1   
    33    19    27 1   
    34    20    21 ar  
    35    20    25 ar  
    36    21    22 ar  
    37    21    39 1   
    38    22    23 ar  
    39    22    40 1   
    40    23    24 ar  
    41    23    41 1   
    42    24    25 ar  
    43    24    42 1   
    44    25    26 1   
    45    26    27 2   
    46    26    43 1   
@<TRIPOS>SUBSTRUCTURE
     1 J56         1 TEMP              0 ****  ****    0 ROOT
