@<TRIPOS>MOLECULE
J56
   43    46     1     0     0
SMALL
abcg2


@<TRIPOS>ATOM
      1 O1          -1.2680     1.8310     1.4910 o          1 J56      -0.485100
      2 C2          -0.4150     2.0070     0.6580 c          1 J56       0.627100
      3 N1          -0.4250     1.4970    -0.6100 ns         1 J56      -0.325900
      4 C1          -1.2090     0.4770    -1.1250 ca         1 J56       0.502900
      5 N           -1.8810    -0.2970    -0.2890 nb         1 J56      -0.654000
      6 C15         -1.2170     0.2740    -2.5070 ca         1 J56      -0.216000
      7 C16         -1.9520    -0.7840    -3.0020 ca         1 J56      -0.047000
      8 C17         -2.6630    -1.6040    -2.1340 ca         1 J56      -0.176000
      9 C           -2.5750    -1.2880    -0.7910 ca         1 J56       0.449200
     10 BR          -3.5110    -2.3580     0.4650 br         1 J56      -0.148200
     11 C3           0.7940     2.9080     0.9330 c5         1 J56       0.158700
     12 N2           2.0320     2.3580     0.4120 n          1 J56      -0.442800
     13 C5           2.8250     3.2160    -0.4640 c5         1 J56       0.107000
     14 C4           2.3730     4.6310    -0.1720 c5         1 J56       0.035600
     15 S            0.5810     4.4930     0.0600 ss         1 J56      -0.391000
     16 C6           2.3570     1.1010     0.7780 c          1 J56       0.570100
     17 O            1.6770     0.4660     1.5630 o          1 J56      -0.530100
     18 C7           3.5870     0.4930     0.1150 c3         1 J56       0.019600
     19 N3           3.6160    -0.9200     0.3240 na         1 J56       0.074600
     20 C10          2.7630    -1.8290    -0.2140 ca         1 J56      -0.024200
     21 C11          1.7750    -1.7020    -1.1960 ca         1 J56      -0.128000
     22 C12          1.0660    -2.8390    -1.5130 ca         1 J56      -0.069000
     23 C13          1.3250    -4.0740    -0.8850 ca         1 J56      -0.144000
     24 C14          2.3020    -4.1930     0.0790 ca         1 J56      -0.031000
     25 C9           3.0310    -3.0480     0.4250 ca         1 J56      -0.221900
     26 C8           4.0600    -2.7290     1.3550 cc         1 J56       0.371800
     27 N4           4.3750    -1.4630     1.2850 nd         1 J56      -0.514100
     28 H1           0.2180     1.9180    -1.2650 hn         1 J56       0.158000
     29 H2          -0.6580     0.9240    -3.1680 ha         1 J56       0.123000
     30 H3          -1.9780    -0.9740    -4.0670 ha         1 J56       0.122000
     31 H4          -3.2450    -2.4390    -2.4950 ha         1 J56       0.142000
     32 H5           0.8480     3.0650     2.0130 h2         1 J56       0.122700
     33 H6           3.8880     3.1080    -0.2460 h1         1 J56       0.058200
     34 H7           2.6590     2.9680    -1.5150 h1         1 J56       0.058200
     35 H8           2.8400     5.0250     0.7300 h1         1 J56       0.089200
     36 H9           2.5750     5.3040    -1.0030 h1         1 J56       0.089200
     37 H10          3.5980     0.7070    -0.9570 h1         1 J56       0.081200
     38 H11          4.4970     0.9250     0.5330 h1         1 J56       0.081200
     39 H12          1.5690    -0.7600    -1.6880 ha         1 J56       0.109000
     40 H13          0.2870    -2.7840    -2.2610 ha         1 J56       0.110000
     41 H14          0.7400    -4.9390    -1.1680 ha         1 J56       0.115000
     42 H15          2.4950    -5.1430     0.5600 ha         1 J56       0.119000
     43 H16          4.5620    -3.3820     2.0520 h4         1 J56       0.051800
@<TRIPOS>BOND
     1     1     2 2   
     2     2     3 1   
     3     2    11 1   
     4     3     4 1   
     5     3    28 1   
     6     4     5 ar  
     7     4     6 ar  
     8     5     9 ar  
     9     6     7 ar  
    10     6    29 1   
    11     7     8 ar  
    12     7    30 1   
    13     8     9 ar  
    14     8    31 1   
    15     9    10 1   
    16    11    12 1   
    17    11    15 1   
    18    11    32 1   
    19    12    13 1   
    20    12    16 1   
    21    13    14 1   
    22    13    33 1   
    23    13    34 1   
    24    14    15 1   
    25    14    35 1   
    26    14    36 1   
    27    16    17 2   
    28    16    18 1   
    29    18    19 1   
    30    18    37 1   
    31    18    38 1   
    32    19    20 1   
    33    19    27 1   
    34    20    21 ar  
    35    20    25 ar  
    36    21    22 ar  
    37    21    39 1   
    38    22    23 ar  
    39    22    40 1   
    40    23    24 ar  
    41    23    41 1   
    42    24    25 ar  
    43    24    42 1   
    44    25    26 1   
    45    26    27 2   
    46    26    43 1   
@<TRIPOS>SUBSTRUCTURE
     1 J56         1 TEMP              0 ****  ****    0 ROOT
