@<TRIPOS>MOLECULE
J57
   38    39     1     0     0
SMALL
No Charge or Current Charge


@<TRIPOS>ATOM
      1 C1          -4.7500     0.1140     0.2420 ce         1 J57      -0.215200
      2 C2          -3.4390     0.4760     0.0810 cf         1 J57      -0.237200
      3 C3          -2.2340    -0.3710    -0.0280 ca         1 J57      -0.029800
      4 C4          -0.9730     0.2360    -0.1900 ca         1 J57      -0.078000
      5 C5           0.2180    -0.5260    -0.2940 cp         1 J57      -0.083000
      6 C6           1.5310     0.1780    -0.4610 cp         1 J57       0.001000
      7 C7           2.6570    -0.1570     0.3300 ca         1 J57      -0.083000
      8 C8           3.8880     0.5160     0.1860 ca         1 J57      -0.086300
      9 O           -5.7190     2.2520     0.2810 o          1 J57      -0.723000
     10 C           -5.9170     1.0480     0.3440 c          1 J57       0.695200
     11 O1          -7.0240     0.5550     0.4860 o          1 J57      -0.723000
     12 C17         -2.3080    -1.7770     0.0260 ca         1 J57      -0.075000
     13 C16         -1.1440    -2.5550    -0.0820 ca         1 J57      -0.209000
     14 C15          0.1100    -1.9430    -0.2420 ca         1 J57       0.114100
     15 O2           1.2030    -2.7490    -0.3740 oh         1 J57      -0.541100
     16 C14          1.6690     1.2270    -1.4020 ca         1 J57      -0.102000
     17 C13          2.8890     1.9040    -1.5550 ca         1 J57      -0.119000
     18 C12          3.9940     1.5500    -0.7660 ca         1 J57      -0.115000
     19 C9           5.0840     0.1260     1.0590 c3         1 J57      -0.013400
     20 C11          6.2570    -0.4060     0.2060 c3         1 J57      -0.082600
     21 C10          5.5230     1.2920     1.9720 c3         1 J57      -0.082600
     22 H1          -5.0130    -0.9370     0.3060 ha         1 J57       0.141000
     23 H2          -3.2310     1.5480     0.0220 ha         1 J57       0.191000
     24 H3          -0.9070     1.3210    -0.2240 ha         1 J57       0.119000
     25 H4           2.5640    -0.9460     1.0720 ha         1 J57       0.115000
     26 H17         -3.2640    -2.2780     0.1490 ha         1 J57       0.119000
     27 H16         -1.2250    -3.6380    -0.0460 ha         1 J57       0.098000
     28 H15          0.9050    -3.6820    -0.3310 ho         1 J57       0.451000
     29 H14          0.8220     1.5090    -2.0240 ha         1 J57       0.119000
     30 H13          2.9780     2.7050    -2.2860 ha         1 J57       0.104000
     31 H12          4.9330     2.0840    -0.8940 ha         1 J57       0.100000
     32 H5           4.7840    -0.6950     1.7230 hc         1 J57       0.048700
     33 H10          6.6540     0.3750    -0.4530 hc         1 J57       0.030867
     34 H11          7.0730    -0.7570     0.8490 hc         1 J57       0.030867
     35 H9           5.9290    -1.2470    -0.4160 hc         1 J57       0.030867
     36 H7           4.6820     1.6380     2.5840 hc         1 J57       0.030867
     37 H6           6.3260     0.9730     2.6470 hc         1 J57       0.030867
     38 H8           5.8900     2.1410     1.3820 hc         1 J57       0.030867
@<TRIPOS>BOND
     1     1     2 2   
     2     1    10 1   
     3     1    22 1   
     4     2     3 1   
     5     2    23 1   
     6     3     4 ar  
     7     3    12 ar  
     8     4     5 ar  
     9     4    24 1   
    10     5     6 1   
    11     5    14 ar  
    12     6     7 ar  
    13     6    16 ar  
    14     7     8 ar  
    15     7    25 1   
    16     8    18 ar  
    17     8    19 1   
    18     9    10 1   
    19    10    11 1   
    20    12    13 ar  
    21    12    26 1   
    22    13    14 ar  
    23    13    27 1   
    24    14    15 1   
    25    15    28 1   
    26    16    17 ar  
    27    16    29 1   
    28    17    18 ar  
    29    17    30 1   
    30    18    31 1   
    31    19    20 1   
    32    19    21 1   
    33    19    32 1   
    34    20    33 1   
    35    20    34 1   
    36    20    35 1   
    37    21    36 1   
    38    21    37 1   
    39    21    38 1   
@<TRIPOS>SUBSTRUCTURE
     1 J57         1 TEMP              0 ****  ****    0 ROOT
