@<TRIPOS>MOLECULE
J57
   38    39     1     0     0
SMALL
bcc


@<TRIPOS>ATOM
      1 C1          -4.6430     0.0610     0.3280 ce         1 J57      -0.165200
      2 C2          -3.3880     0.4610     0.1070 cf         1 J57      -0.187200
      3 C3          -2.2070    -0.3830    -0.0650 ca         1 J57      -0.029800
      4 C4          -0.9550     0.2180    -0.1950 ca         1 J57      -0.096000
      5 C5           0.2240    -0.5070    -0.3410 cp         1 J57      -0.083000
      6 C6           1.5190     0.1960    -0.4790 cp         1 J57       0.001000
      7 C7           2.5950    -0.1010     0.3590 ca         1 J57      -0.101000
      8 C8           3.8100     0.5670     0.2550 ca         1 J57      -0.086300
      9 O           -5.5600     2.2410     0.4360 o          1 J57      -0.828300
     10 C           -5.8000     1.0180     0.4900 c          1 J57       0.905800
     11 O1          -6.9160     0.4850     0.6650 o          1 J57      -0.828300
     12 C17         -2.2540    -1.7790    -0.0970 ca         1 J57      -0.093000
     13 C16         -1.1030    -2.5260    -0.2520 ca         1 J57      -0.227000
     14 C15          0.1390    -1.9040    -0.3760 ca         1 J57       0.114100
     15 O2           1.2710    -2.6090    -0.5530 oh         1 J57      -0.502100
     16 C14          1.6730     1.1940    -1.4370 ca         1 J57      -0.120000
     17 C13          2.8820     1.8690    -1.5540 ca         1 J57      -0.137000
     18 C12          3.9440     1.5560    -0.7200 ca         1 J57      -0.133000
     19 C9           4.9620     0.1950     1.1600 c3         1 J57      -0.013400
     20 C11          6.0230    -0.5840     0.3810 c3         1 J57      -0.082600
     21 C10          5.5750     1.4110     1.8530 c3         1 J57      -0.082600
     22 H1          -4.8790    -0.9970     0.4040 ha         1 J57       0.091000
     23 H2          -3.2060     1.5300     0.0490 ha         1 J57       0.141000
     24 H3          -0.8900     1.3010    -0.1630 ha         1 J57       0.137000
     25 H4           2.4820    -0.8640     1.1190 ha         1 J57       0.133000
     26 H17         -3.1980    -2.3010    -0.0050 ha         1 J57       0.137000
     27 H16         -1.1680    -3.6080    -0.2860 ha         1 J57       0.116000
     28 H15          1.0800    -3.5540    -0.5520 ho         1 J57       0.412000
     29 H14          0.8540     1.4370    -2.1030 ha         1 J57       0.137000
     30 H13          2.9950     2.6390    -2.3070 ha         1 J57       0.122000
     31 H12          4.8810     2.0880    -0.8310 ha         1 J57       0.118000
     32 H5           4.5670    -0.4650     1.9390 hc         1 J57       0.048700
     33 H10          6.4480     0.0260    -0.4180 hc         1 J57       0.030867
     34 H11          6.8410    -0.8910     1.0360 hc         1 J57       0.030867
     35 H9           5.6020    -1.4820    -0.0730 hc         1 J57       0.030867
     36 H7           4.8210     1.9870     2.3910 hc         1 J57       0.030867
     37 H6           6.3320     1.0980     2.5720 hc         1 J57       0.030867
     38 H8           6.0610     2.0800     1.1400 hc         1 J57       0.030867
@<TRIPOS>BOND
     1     1     2 2   
     2     1    10 1   
     3     1    22 1   
     4     2     3 1   
     5     2    23 1   
     6     3     4 ar  
     7     3    12 ar  
     8     4     5 ar  
     9     4    24 1   
    10     5     6 1   
    11     5    14 ar  
    12     6     7 ar  
    13     6    16 ar  
    14     7     8 ar  
    15     7    25 1   
    16     8    18 ar  
    17     8    19 1   
    18     9    10 1   
    19    10    11 1   
    20    12    13 ar  
    21    12    26 1   
    22    13    14 ar  
    23    13    27 1   
    24    14    15 1   
    25    15    28 1   
    26    16    17 ar  
    27    16    29 1   
    28    17    18 ar  
    29    17    30 1   
    30    18    31 1   
    31    19    20 1   
    32    19    21 1   
    33    19    32 1   
    34    20    33 1   
    35    20    34 1   
    36    20    35 1   
    37    21    36 1   
    38    21    37 1   
    39    21    38 1   
@<TRIPOS>SUBSTRUCTURE
     1 J57         1 TEMP              0 ****  ****    0 ROOT
