@<TRIPOS>MOLECULE
J58
   17    18     1     0     0
SMALL
No Charge or Current Charge


@<TRIPOS>ATOM
      1 C10          2.6710     1.3610    -0.0060 ca         1 J58      -0.045000
      2 C02         -0.7930     0.5330     0.0180 cc         1 J58      -0.110400
      3 C05          1.2680     1.3690     0.0070 ca         1 J58      -0.102000
      4 C06          0.5800     0.1800     0.0020 ca         1 J58      -0.058000
      5 C07          1.2110    -1.0700    -0.0150 ca         1 J58      -0.155000
      6 C08          2.6180    -1.0940    -0.0280 ca         1 J58       0.277000
      7 C09          3.3430     0.1180    -0.0240 ca         1 J58      -0.137000
      8 N03         -0.8460     1.9210     0.0320 na         1 J58       0.029500
      9 N04          0.4360     2.4940     0.0250 nc         1 J58      -0.255400
     10 N11          3.2810    -2.2930    -0.0450 nv         1 J58      -1.066000
     11 Br          -2.3160    -0.5790     0.0210 br         1 J58      -0.008700
     12 H1           3.2310     2.2940    -0.0020 ha         1 J58       0.128000
     13 H2           0.6310    -1.9880    -0.0190 ha         1 J58       0.123000
     14 H3           4.4300     0.1010    -0.0350 ha         1 J58       0.113000
     15 H4          -1.6810     2.4990     0.0450 hn         1 J58       0.382000
     16 H5           2.7660    -3.1630     0.0810 hn         1 J58       0.444000
     17 H6           4.2930    -2.3200     0.0750 hn         1 J58       0.444000
@<TRIPOS>BOND
     1     1     3 ar  
     2     1     7 ar  
     3     1    12 1   
     4     2     4 2   
     5     2     8 1   
     6     2    11 1   
     7     3     4 ar  
     8     3     9 2   
     9     4     5 ar  
    10     5     6 ar  
    11     5    13 1   
    12     6     7 ar  
    13     6    10 1   
    14     7    14 1   
    15     8     9 1   
    16     8    15 1   
    17    10    16 1   
    18    10    17 1   
@<TRIPOS>SUBSTRUCTURE
     1 J58         1 TEMP              0 ****  ****    0 ROOT
