@<TRIPOS>MOLECULE
J58
   17    18     1     0     0
SMALL
abcg2


@<TRIPOS>ATOM
      1 C10          2.6650     1.3460    -0.0100 ca         1 J58      -0.045000
      2 C02         -0.7880     0.5430     0.0190 cc         1 J58      -0.110400
      3 C05          1.2510     1.3620     0.0080 ca         1 J58      -0.102000
      4 C06          0.5380     0.1330    -0.0090 ca         1 J58      -0.058000
      5 C07          1.2050    -1.1110    -0.0390 ca         1 J58      -0.155000
      6 C08          2.5790    -1.1070    -0.0640 ca         1 J58       0.277000
      7 C09          3.2930     0.1390    -0.0480 ca         1 J58      -0.137000
      8 N03         -0.7780     1.8860     0.0490 na         1 J58       0.029500
      9 N04          0.4300     2.4170     0.0440 nc         1 J58      -0.255400
     10 N11          3.3180    -2.2720    -0.1610 nv         1 J58      -1.066000
     11 BR          -2.3420    -0.4580     0.0180 br         1 J58      -0.008700
     12 H1           3.2320     2.2680     0.0040 ha         1 J58       0.128000
     13 H2           0.6480    -2.0400    -0.0430 ha         1 J58       0.123000
     14 H3           4.3760     0.1060    -0.0690 ha         1 J58       0.113000
     15 H4          -1.5860     2.4910     0.0720 hn         1 J58       0.382000
     16 H5           2.8390    -3.1110     0.1250 hn         1 J58       0.444000
     17 H6           4.2430    -2.2280     0.2360 hn         1 J58       0.444000
@<TRIPOS>BOND
     1     1     3 ar  
     2     1     7 ar  
     3     1    12 1   
     4     2     4 2   
     5     2     8 1   
     6     2    11 1   
     7     3     4 ar  
     8     3     9 2   
     9     4     5 ar  
    10     5     6 ar  
    11     5    13 1   
    12     6     7 ar  
    13     6    10 1   
    14     7    14 1   
    15     8     9 1   
    16     8    15 1   
    17    10    16 1   
    18    10    17 1   
@<TRIPOS>SUBSTRUCTURE
     1 J58         1 TEMP              0 ****  ****    0 ROOT
