@<TRIPOS>MOLECULE
J5A
   19    19     1     0     0
SMALL
No Charge or Current Charge


@<TRIPOS>ATOM
      1 C            4.8090    -1.2930    -1.3800 c3         1 J5A      -0.178100
      2 O            4.9410    -0.4450     0.8750 o          1 J5A      -0.609100
      3 C1           4.2580    -0.6420    -0.1180 c          1 J5A       0.597100
      4 C2           2.1970     0.3380     0.9070 c3         1 J5A       0.177300
      5 C3           0.7700     0.5890     0.5170 cc         1 J5A      -0.256300
      6 C4          -0.2130    -0.3370     0.2680 cd         1 J5A      -0.105000
      7 C5          -1.4650     0.2370    -0.0790 cd         1 J5A      -0.055900
      8 C6          -1.4430     1.6080    -0.0940 cc         1 J5A      -0.231000
      9 Br          -2.9930    -0.7920    -0.4750 br         1 J5A      -0.075100
     10 S            0.1490     2.2280     0.3280 ss         1 J5A       0.304000
     11 N            2.9320    -0.2930    -0.1810 ns         1 J5A      -0.506900
     12 H1           5.8690    -1.5570    -1.2910 hc         1 J5A       0.061367
     13 H2           4.1940    -2.1650    -1.6290 hc         1 J5A       0.061367
     14 H3           4.6280    -0.6290    -2.2330 hc         1 J5A       0.061367
     15 H4           2.6870     1.2860     1.1690 h1         1 J5A       0.065200
     16 H5           2.2260    -0.3180     1.7880 h1         1 J5A       0.065200
     17 H6          -0.0500    -1.4100     0.3300 ha         1 J5A       0.141000
     18 H7          -2.2410     2.3020    -0.3200 h4         1 J5A       0.162000
     19 H8           2.4390    -0.4930    -1.0420 hn         1 J5A       0.317500
@<TRIPOS>BOND
     1     1     3 1   
     2     1    12 1   
     3     1    13 1   
     4     1    14 1   
     5     2     3 2   
     6     3    11 1   
     7     4     5 1   
     8     4    11 1   
     9     4    15 1   
    10     4    16 1   
    11     5     6 2   
    12     5    10 1   
    13     6     7 1   
    14     6    17 1   
    15     7     8 2   
    16     7     9 1   
    17     8    10 1   
    18     8    18 1   
    19    11    19 1   
@<TRIPOS>SUBSTRUCTURE
     1 J5A         1 TEMP              0 ****  ****    0 ROOT
