@<TRIPOS>MOLECULE
J5A
   19    19     1     0     0
SMALL
abcg2


@<TRIPOS>ATOM
      1 C            4.7260    -0.7600    -1.5240 c3         1 J5A      -0.178100
      2 O            3.8860     1.0600    -0.2110 o          1 J5A      -0.609100
      3 C1           3.8410    -0.1350    -0.4770 c          1 J5A       0.597100
      4 C2           2.0580    -0.5010     1.1450 c3         1 J5A       0.177300
      5 C3           0.8420     0.1630     0.5720 cc         1 J5A      -0.256300
      6 C4          -0.4360    -0.3060     0.6070 cd         1 J5A      -0.105000
      7 C5          -1.3470     0.5840    -0.0240 cd         1 J5A      -0.055900
      8 C6          -0.7630     1.7030    -0.5250 cc         1 J5A      -0.231000
      9 BR          -3.1830     0.2280    -0.1510 br         1 J5A      -0.075100
     10 S            0.9260     1.6850    -0.2330 ss         1 J5A       0.304000
     11 N            2.9900    -0.9680     0.1440 ns         1 J5A      -0.506900
     12 H1           5.7620    -0.4790    -1.3410 hc         1 J5A       0.061367
     13 H2           4.6590    -1.8460    -1.5540 hc         1 J5A       0.061367
     14 H3           4.4510    -0.3720    -2.5050 hc         1 J5A       0.061367
     15 H4           2.5720     0.1700     1.8330 h1         1 J5A       0.065200
     16 H5           1.7340    -1.3650     1.7240 h1         1 J5A       0.065200
     17 H6          -0.7170    -1.2430     1.0660 ha         1 J5A       0.141000
     18 H7          -1.2270     2.5220    -1.0510 h4         1 J5A       0.162000
     19 H8           2.9200    -1.9260    -0.1560 hn         1 J5A       0.317500
@<TRIPOS>BOND
     1     1     3 1   
     2     1    12 1   
     3     1    13 1   
     4     1    14 1   
     5     2     3 2   
     6     3    11 1   
     7     4     5 1   
     8     4    11 1   
     9     4    15 1   
    10     4    16 1   
    11     5     6 2   
    12     5    10 1   
    13     6     7 1   
    14     6    17 1   
    15     7     8 2   
    16     7     9 1   
    17     8    10 1   
    18     8    18 1   
    19    11    19 1   
@<TRIPOS>SUBSTRUCTURE
     1 J5A         1 TEMP              0 ****  ****    0 ROOT
