@<TRIPOS>MOLECULE
J5B
   37    37     1     0     0
SMALL
bcc


@<TRIPOS>ATOM
      1 C1          14.1670     7.2330    28.1500 c6         1 J5B       0.341900
      2 O1          14.3140     7.8830    26.9280 os         1 J5B      -0.438600
      3 C2          12.6780     7.0780    28.4530 c6         1 J5B       0.139100
      4 O2          12.0700     6.4330    27.3670 oh         1 J5B      -0.577800
      5 C3          12.0460     8.4280    28.7720 c6         1 J5B       0.111100
      6 O3          10.7110     8.1800    29.1440 oh         1 J5B      -0.606800
      7 C4          12.8320     9.1080    29.8850 c6         1 J5B       0.088100
      8 O4          12.2730    10.3860    30.0840 oh         1 J5B      -0.601800
      9 C5          14.3090     9.2010    29.4830 c6         1 J5B       0.120100
     10 O5          14.8100     7.9020    29.1950 os         1 J5B      -0.417600
     11 C6          15.1970     9.8120    30.5450 c3         1 J5B       0.140400
     12 O6          15.0770     9.0850    31.7440 oh         1 J5B      -0.592800
     13 C7          15.6310     7.8600    26.3930 c3         1 J5B       0.137400
     14 C8          15.6610     8.6270    25.0860 c3         1 J5B      -0.121400
     15 C9          15.3130    10.1100    25.2200 c3         1 J5B       0.159100
     16 C10         15.6420    10.8730    23.9500 c3         1 J5B      -0.091100
     17 O9          13.9400    10.3170    25.4980 oh         1 J5B      -0.605800
     18 H1          14.6410     6.2430    28.1070 h2         1 J5B       0.082700
     19 H2          12.6170     6.4620    29.3640 h1         1 J5B       0.054700
     20 HO2         11.1570     6.2440    27.6060 ho         1 J5B       0.423000
     21 H3          12.0820     9.0670    27.8760 h1         1 J5B       0.065700
     22 HO3         10.2680     9.0270    29.2620 ho         1 J5B       0.425000
     23 H4          12.7460     8.4920    30.7890 h1         1 J5B       0.069700
     24 HO4         12.4290    10.6580    30.9930 ho         1 J5B       0.414000
     25 H5          14.3870     9.8520    28.6010 h1         1 J5B       0.060700
     26 H61         16.2300     9.8190    30.1710 h1         1 J5B       0.031700
     27 H62         14.9030    10.8610    30.6670 h1         1 J5B       0.031700
     28 HO6         15.5810     9.5400    32.4250 ho         1 J5B       0.405000
     29 H12         15.9440     6.8210    26.2310 h1         1 J5B       0.032700
     30 H13         16.3420     8.3100    27.0950 h1         1 J5B       0.032700
     31 H14         15.0030     8.1570    24.3490 hc         1 J5B       0.060700
     32 H15         16.6790     8.5390    24.6970 hc         1 J5B       0.060700
     33 H16         15.9300    10.5210    26.0360 h1         1 J5B       0.018700
     34 H17         15.3660    11.9240    24.0410 hc         1 J5B       0.041033
     35 H18         16.7100    10.8260    23.7420 hc         1 J5B       0.041033
     36 H19         13.6810     9.6790    26.1720 ho         1 J5B       0.422000
     37 H20         15.1110    10.4550    23.0920 hc         1 J5B       0.041033
@<TRIPOS>BOND
     1     1     2 1   
     2     1     3 1   
     3     1    10 1   
     4     1    18 1   
     5     2    13 1   
     6     3     4 1   
     7     3     5 1   
     8     3    19 1   
     9     4    20 1   
    10     5     6 1   
    11     5     7 1   
    12     5    21 1   
    13     6    22 1   
    14     7     8 1   
    15     7     9 1   
    16     7    23 1   
    17     8    24 1   
    18     9    10 1   
    19     9    11 1   
    20     9    25 1   
    21    11    12 1   
    22    11    26 1   
    23    11    27 1   
    24    12    28 1   
    25    13    14 1   
    26    13    29 1   
    27    13    30 1   
    28    14    15 1   
    29    14    31 1   
    30    14    32 1   
    31    15    16 1   
    32    15    17 1   
    33    15    33 1   
    34    16    34 1   
    35    16    35 1   
    36    16    37 1   
    37    17    36 1   
@<TRIPOS>SUBSTRUCTURE
     1 J5B         1 TEMP              0 ****  ****    0 ROOT
