@<TRIPOS>MOLECULE
J5B
   37    37     1     0     0
SMALL
No Charge or Current Charge


@<TRIPOS>ATOM
      1 C1          14.1480     7.1630    28.1290 c6         1 J5B       0.388300
      2 O1          14.3970     7.8760    26.8960 os         1 J5B      -0.485000
      3 C2          12.6140     7.0070    28.4270 c6         1 J5B       0.162300
      4 O2          11.8800     6.3710    27.3560 oh         1 J5B      -0.700000
      5 C3          11.9940     8.4020    28.7240 c6         1 J5B       0.134300
      6 O3          10.5980     8.2800    29.0520 oh         1 J5B      -0.669000
      7 C4          12.7610     9.0970    29.8850 c6         1 J5B       0.111300
      8 O4          12.1790    10.3960    30.1420 oh         1 J5B      -0.724000
      9 C5          14.2760     9.1870    29.5070 c6         1 J5B       0.143300
     10 O5          14.7970     7.8590    29.2200 os         1 J5B      -0.464000
     11 C6          15.1590     9.8140    30.6380 c3         1 J5B       0.163600
     12 O6          15.1400     9.0640    31.8690 oh         1 J5B      -0.715000
     13 C7          15.7680     7.9190    26.4570 c3         1 J5B       0.160600
     14 C8          15.8230     8.6650    25.1060 c3         1 J5B      -0.121400
     15 C9          15.3590    10.1380    25.1690 c3         1 J5B       0.182300
     16 C10         15.5150    10.8720    23.8240 c3         1 J5B      -0.091100
     17 O9          13.9900    10.1620    25.5550 oh         1 J5B      -0.668000
     18 H1          14.5780     6.1530    28.0450 h2         1 J5B       0.082700
     19 H2          12.5240     6.3980    29.3390 h1         1 J5B       0.054700
     20 HO2         10.9430     6.6460    27.5050 ho         1 J5B       0.522000
     21 H3          12.1090     9.0270    27.8250 h1         1 J5B       0.065700
     22 HO3         10.3740     9.1300    29.5000 ho         1 J5B       0.464000
     23 H4          12.6720     8.4620    30.7800 h1         1 J5B       0.069700
     24 HO4         12.4800    10.6770    31.0400 ho         1 J5B       0.513000
     25 H5          14.3900     9.8150    28.6100 h1         1 J5B       0.060700
     26 H61         16.1870     9.8800    30.2570 h1         1 J5B       0.031700
     27 H62         14.8200    10.8440    30.8160 h1         1 J5B       0.031700
     28 HO6         15.8420     9.4440    32.4490 ho         1 J5B       0.504000
     29 H12         16.1620     6.9020    26.3250 h1         1 J5B       0.032700
     30 H13         16.3990     8.4410    27.1890 h1         1 J5B       0.032700
     31 H14         15.2240     8.1170    24.3670 hc         1 J5B       0.060700
     32 H15         16.8590     8.6380    24.7460 hc         1 J5B       0.060700
     33 H16         15.9670    10.6600    25.9210 h1         1 J5B       0.018700
     34 H17         15.1790    11.9120    23.9110 hc         1 J5B       0.041033
     35 H18         16.5660    10.8800    23.5100 hc         1 J5B       0.041033
     36 H19         13.8800     9.3320    26.0840 ho         1 J5B       0.461000
     37 H20         14.9250    10.3830    23.0390 hc         1 J5B       0.041033
@<TRIPOS>BOND
     1     1     2 1   
     2     1     3 1   
     3     1    10 1   
     4     1    18 1   
     5     2    13 1   
     6     3     4 1   
     7     3     5 1   
     8     3    19 1   
     9     4    20 1   
    10     5     6 1   
    11     5     7 1   
    12     5    21 1   
    13     6    22 1   
    14     7     8 1   
    15     7     9 1   
    16     7    23 1   
    17     8    24 1   
    18     9    10 1   
    19     9    11 1   
    20     9    25 1   
    21    11    12 1   
    22    11    26 1   
    23    11    27 1   
    24    12    28 1   
    25    13    14 1   
    26    13    29 1   
    27    13    30 1   
    28    14    15 1   
    29    14    31 1   
    30    14    32 1   
    31    15    16 1   
    32    15    17 1   
    33    15    33 1   
    34    16    34 1   
    35    16    35 1   
    36    16    37 1   
    37    17    36 1   
@<TRIPOS>SUBSTRUCTURE
     1 J5B         1 TEMP              0 ****  ****    0 ROOT
