@<TRIPOS>MOLECULE
J5C
   43    44     1     0     0
SMALL
bcc


@<TRIPOS>ATOM
      1 C1         111.2450   122.8830   137.2230 c3         1 J5C      -0.045800
      2 C2         109.8500   122.3440   137.0560 ca         1 J5C      -0.100300
      3 C3         108.8990   122.5960   138.0330 ca         1 J5C      -0.099000
      4 C4         107.5810   122.1480   137.9670 ca         1 J5C      -0.143300
      5 C5         107.2400   121.4120   136.8250 ca         1 J5C       0.137100
      6 C6         108.1750   121.1170   135.8180 ca         1 J5C      -0.100300
      7 C7         109.4830   121.5940   135.9330 ca         1 J5C      -0.061300
      8 C8         110.5340   121.2990   134.8900 c3         1 J5C      -0.066400
      9 C9         111.3800   120.1080   135.2300 c2         1 J5C       0.574200
     10 N10        110.7910   118.9610   135.7020 nu         1 J5C      -0.844200
     11 C11        111.8660   118.0970   136.1700 c5         1 J5C       0.154800
     12 C12        113.0650   118.7130   135.4260 c5         1 J5C       0.087800
     13 N13        112.6430   120.0600   135.0490 n2         1 J5C      -0.640900
     14 C14        107.7010   120.2750   134.6620 c3         1 J5C      -0.038800
     15 O15        106.0020   120.9100   136.5890 oh         1 J5C      -0.508100
     16 C16        106.5890   122.4560   139.0970 c3         1 J5C       0.004300
     17 C17        107.2530   123.2360   140.2380 c3         1 J5C      -0.088433
     18 C18        106.0560   121.1570   139.7300 c3         1 J5C      -0.088433
     19 C19        105.4350   123.3400   138.5910 c3         1 J5C      -0.088433
     20 H1         111.4890   123.6210   136.4550 hc         1 J5C       0.044700
     21 H2         111.3580   123.3720   138.1900 hc         1 J5C       0.044700
     22 H3         112.0030   122.1010   137.1590 hc         1 J5C       0.044700
     23 H4         109.2160   123.1720   138.8910 ha         1 J5C       0.131000
     24 H5         111.2020   122.1500   134.7600 hc         1 J5C       0.077700
     25 H6         110.0850   121.1260   133.9110 hc         1 J5C       0.077700
     26 H7         109.9620   119.0470   136.2700 hn         1 J5C       0.422800
     27 H8         111.6930   117.0530   135.9120 h1         1 J5C       0.045200
     28 H9         113.3080   118.1390   134.5250 h1         1 J5C       0.060200
     29 H11        107.2910   119.3250   135.0060 hc         1 J5C       0.046033
     30 H12        106.9100   120.7740   134.1000 hc         1 J5C       0.046033
     31 H13        108.4950   120.0380   133.9600 hc         1 J5C       0.046033
     32 H14        105.3810   121.1550   137.2780 ho         1 J5C       0.429000
     33 H15        106.5160   123.4120   141.0220 hc         1 J5C       0.037256
     34 H16        108.0810   122.6840   140.6860 hc         1 J5C       0.037256
     35 H17        107.6240   124.2090   139.9140 hc         1 J5C       0.037256
     36 H18        105.3800   121.3970   140.5530 hc         1 J5C       0.037256
     37 H19        105.5020   120.5060   139.0540 hc         1 J5C       0.037256
     38 H20        106.8790   120.5670   140.1350 hc         1 J5C       0.037256
     39 H21        104.7500   123.5630   139.4110 hc         1 J5C       0.037256
     40 H22        105.8200   124.2860   138.2100 hc         1 J5C       0.037256
     41 H23        104.8330   122.8990   137.7940 hc         1 J5C       0.037256
     42 H24        111.9830   118.1640   137.2570 h1         1 J5C       0.045200
     43 H25        113.9690   118.7380   136.0360 h1         1 J5C       0.060200
@<TRIPOS>BOND
     1     1     2 1   
     2     1    20 1   
     3     1    21 1   
     4     1    22 1   
     5     2     3 ar  
     6     2     7 ar  
     7     3     4 ar  
     8     3    23 1   
     9     4     5 ar  
    10     4    16 1   
    11     5     6 ar  
    12     5    15 1   
    13     6     7 ar  
    14     6    14 1   
    15     7     8 1   
    16     8     9 1   
    17     8    24 1   
    18     8    25 1   
    19     9    10 1   
    20     9    13 2   
    21    10    11 1   
    22    10    26 1   
    23    11    12 1   
    24    11    27 1   
    25    11    42 1   
    26    12    13 1   
    27    12    28 1   
    28    12    43 1   
    29    14    29 1   
    30    14    30 1   
    31    14    31 1   
    32    15    32 1   
    33    16    17 1   
    34    16    18 1   
    35    16    19 1   
    36    17    33 1   
    37    17    34 1   
    38    17    35 1   
    39    18    36 1   
    40    18    37 1   
    41    18    38 1   
    42    19    39 1   
    43    19    40 1   
    44    19    41 1   
@<TRIPOS>SUBSTRUCTURE
     1 J5C         1 TEMP              0 ****  ****    0 ROOT
