@<TRIPOS>MOLECULE
J5C
   43    44     1     0     0
SMALL
No Charge or Current Charge


@<TRIPOS>ATOM
      1 C1         111.2790   122.7530   137.2350 c3         1 J5C      -0.045800
      2 C2         109.8430   122.2530   137.0520 ca         1 J5C      -0.100300
      3 C3         108.9120   122.5350   138.0660 ca         1 J5C      -0.081000
      4 C4         107.5600   122.1200   137.9920 ca         1 J5C      -0.143300
      5 C5         107.1770   121.3850   136.8320 ca         1 J5C       0.137100
      6 C6         108.1060   121.0780   135.8020 ca         1 J5C      -0.100300
      7 C7         109.4500   121.5270   135.9050 ca         1 J5C      -0.061300
      8 C8         110.4840   121.2330   134.7970 c3         1 J5C      -0.066400
      9 C9         111.4350   120.1000   135.1280 c2         1 J5C       0.574200
     10 N10        110.8810   118.9240   135.5790 nu         1 J5C      -0.899400
     11 C11        111.9960   118.1800   136.1960 c5         1 J5C       0.154800
     12 C12        113.1840   118.7990   135.4110 c5         1 J5C       0.087800
     13 N13        112.7060   120.1390   134.9800 n2         1 J5C      -0.640900
     14 C14        107.6520   120.2730   134.5690 c3         1 J5C      -0.038800
     15 O15        105.8870   120.9630   136.6890 oh         1 J5C      -0.547100
     16 C16        106.5540   122.4680   139.1500 c3         1 J5C       0.004300
     17 C17        107.2170   123.2700   140.3110 c3         1 J5C      -0.088433
     18 C18        105.9880   121.1680   139.7950 c3         1 J5C      -0.088433
     19 C19        105.3930   123.3590   138.6190 c3         1 J5C      -0.088433
     20 H1         111.5570   123.4630   136.4480 hc         1 J5C       0.044700
     21 H2         111.4170   123.2700   138.1920 hc         1 J5C       0.044700
     22 H3         111.9950   121.9240   137.2180 hc         1 J5C       0.044700
     23 H4         109.2780   123.0960   138.9180 ha         1 J5C       0.113000
     24 H5         111.0680   122.1360   134.5910 hc         1 J5C       0.077700
     25 H6         110.0110   121.0210   133.8340 hc         1 J5C       0.077700
     26 H7         110.0060   119.0450   136.0860 hn         1 J5C       0.478000
     27 H8         111.9250   117.0910   136.0660 h1         1 J5C       0.045200
     28 H9         113.4440   118.1920   134.5320 h1         1 J5C       0.060200
     29 H11        106.6830   119.7780   134.6970 hc         1 J5C       0.046033
     30 H12        107.5660   120.9250   133.6910 hc         1 J5C       0.046033
     31 H13        108.3590   119.4730   134.3260 hc         1 J5C       0.046033
     32 H14        105.3940   121.2630   137.4780 ho         1 J5C       0.468000
     33 H15        106.4900   123.4940   141.1020 hc         1 J5C       0.037256
     34 H16        108.0320   122.7000   140.7750 hc         1 J5C       0.037256
     35 H17        107.6130   124.2300   139.9580 hc         1 J5C       0.037256
     36 H18        105.3790   121.4020   140.6770 hc         1 J5C       0.037256
     37 H19        105.3490   120.5950   139.1170 hc         1 J5C       0.037256
     38 H20        106.8060   120.5130   140.1190 hc         1 J5C       0.037256
     39 H21        104.7540   123.7000   139.4430 hc         1 J5C       0.037256
     40 H22        105.7920   124.2490   138.1170 hc         1 J5C       0.037256
     41 H23        104.7410   122.8400   137.9110 hc         1 J5C       0.037256
     42 H24        112.0820   118.3990   137.2700 h1         1 J5C       0.045200
     43 H25        114.0780   118.8780   136.0450 h1         1 J5C       0.060200
@<TRIPOS>BOND
     1     1     2 1   
     2     1    20 1   
     3     1    21 1   
     4     1    22 1   
     5     2     3 ar  
     6     2     7 ar  
     7     3     4 ar  
     8     3    23 1   
     9     4     5 ar  
    10     4    16 1   
    11     5     6 ar  
    12     5    15 1   
    13     6     7 ar  
    14     6    14 1   
    15     7     8 1   
    16     8     9 1   
    17     8    24 1   
    18     8    25 1   
    19     9    10 1   
    20     9    13 2   
    21    10    11 1   
    22    10    26 1   
    23    11    12 1   
    24    11    27 1   
    25    11    42 1   
    26    12    13 1   
    27    12    28 1   
    28    12    43 1   
    29    14    29 1   
    30    14    30 1   
    31    14    31 1   
    32    15    32 1   
    33    16    17 1   
    34    16    18 1   
    35    16    19 1   
    36    17    33 1   
    37    17    34 1   
    38    17    35 1   
    39    18    36 1   
    40    18    37 1   
    41    18    38 1   
    42    19    39 1   
    43    19    40 1   
    44    19    41 1   
@<TRIPOS>SUBSTRUCTURE
     1 J5C         1 TEMP              0 ****  ****    0 ROOT
