@<TRIPOS>MOLECULE
J5D
   25    25     1     0     0
SMALL
No Charge or Current Charge


@<TRIPOS>ATOM
      1 C            4.3450    -0.2580    -1.4450 c3         1 J5D      -0.179100
      2 O            4.2460    -0.0600     0.9580 o          1 J5D      -0.606100
      3 C1           3.6420    -0.0930    -0.1040 c          1 J5D       0.597100
      4 C2           1.4000     0.1810     0.9780 c3         1 J5D       0.156300
      5 C3          -0.0560     0.2660     0.5480 ca         1 J5D      -0.128300
      6 C4          -0.6400     1.5170     0.2700 ca         1 J5D      -0.072000
      7 C5          -1.9850     1.5920    -0.1310 ca         1 J5D      -0.151000
      8 C6          -2.7470     0.4200    -0.2560 ca         1 J5D       0.175000
      9 F           -4.0390     0.5120    -0.6440 f          1 J5D      -0.179000
     10 C7          -2.1750    -0.8390     0.0160 ca         1 J5D      -0.115300
     11 C8          -3.0010    -2.1130    -0.1220 c3         1 J5D      -0.041800
     12 C9          -0.8260    -0.9070     0.4180 ca         1 J5D      -0.077000
     13 N            2.2760     0.0170    -0.1780 ns         1 J5D      -0.514900
     14 H1           5.4330    -0.3410    -1.3450 hc         1 J5D       0.060367
     15 H2           3.9190    -1.1220    -1.9680 hc         1 J5D       0.060367
     16 H3           4.0620     0.5730    -2.1010 hc         1 J5D       0.060367
     17 H4           1.6840     1.0950     1.5160 h1         1 J5D       0.058700
     18 H5           1.5390    -0.6710     1.6570 h1         1 J5D       0.058700
     19 H6          -0.0530     2.4290     0.3640 ha         1 J5D       0.122000
     20 H7          -2.4370     2.5570    -0.3450 ha         1 J5D       0.135000
     21 H8          -3.3700    -2.2310    -1.1480 hc         1 J5D       0.049033
     22 H9          -2.4170    -3.0080     0.1240 hc         1 J5D       0.049033
     23 H10         -3.8700    -2.0910     0.5460 hc         1 J5D       0.049033
     24 H11         -0.3710    -1.8740     0.6290 ha         1 J5D       0.119000
     25 H12          1.8570    -0.0210    -1.0990 hn         1 J5D       0.316500
@<TRIPOS>BOND
     1     1     3 1   
     2     1    14 1   
     3     1    15 1   
     4     1    16 1   
     5     2     3 2   
     6     3    13 1   
     7     4     5 1   
     8     4    13 1   
     9     4    17 1   
    10     4    18 1   
    11     5     6 ar  
    12     5    12 ar  
    13     6     7 ar  
    14     6    19 1   
    15     7     8 ar  
    16     7    20 1   
    17     8     9 1   
    18     8    10 ar  
    19    10    11 1   
    20    10    12 ar  
    21    11    21 1   
    22    11    22 1   
    23    11    23 1   
    24    12    24 1   
    25    13    25 1   
@<TRIPOS>SUBSTRUCTURE
     1 J5D         1 TEMP              0 ****  ****    0 ROOT
