@<TRIPOS>MOLECULE
J5D
   25    25     1     0     0
SMALL
abcg2


@<TRIPOS>ATOM
      1 C            4.2210    -0.4480    -1.4380 c3         1 J5D      -0.179100
      2 O            4.1650     0.0270     0.9180 o          1 J5D      -0.606100
      3 C1           3.5490    -0.1030    -0.1320 c          1 J5D       0.597100
      4 C2           1.3990     0.2980     0.9740 c3         1 J5D       0.156300
      5 C3          -0.0520     0.3550     0.5850 ca         1 J5D      -0.128300
      6 C4          -0.6960     1.5720     0.4060 ca         1 J5D      -0.072000
      7 C5          -2.0280     1.6130     0.0140 ca         1 J5D      -0.151000
      8 C6          -2.6920     0.4230    -0.1990 ca         1 J5D       0.175000
      9 F           -3.9800     0.4640    -0.5840 f          1 J5D      -0.179000
     10 C7          -2.0960    -0.8200    -0.0350 ca         1 J5D      -0.115300
     11 C8          -2.8610    -2.0870    -0.2700 c3         1 J5D      -0.041800
     12 C9          -0.7630    -0.8220     0.3610 ca         1 J5D      -0.077000
     13 N            2.2130     0.0230    -0.1960 ns         1 J5D      -0.514900
     14 H1           5.2740    -0.1770    -1.4040 hc         1 J5D       0.060367
     15 H2           4.1550    -1.5240    -1.6100 hc         1 J5D       0.060367
     16 H3           3.7540     0.0490    -2.2870 hc         1 J5D       0.060367
     17 H4           1.7020     1.2450     1.4270 h1         1 J5D       0.058700
     18 H5           1.5560    -0.4800     1.7260 h1         1 J5D       0.058700
     19 H6          -0.1640     2.4990     0.5750 ha         1 J5D       0.122000
     20 H7          -2.5390     2.5560    -0.1270 ha         1 J5D       0.135000
     21 H8          -3.2710    -2.1290    -1.2790 hc         1 J5D       0.049033
     22 H9          -2.2150    -2.9530    -0.1360 hc         1 J5D       0.049033
     23 H10         -3.6970    -2.1860     0.4240 hc         1 J5D       0.049033
     24 H11         -0.2690    -1.7770     0.5060 ha         1 J5D       0.119000
     25 H12          1.7500    -0.0870    -1.0830 hn         1 J5D       0.316500
@<TRIPOS>BOND
     1     1     3 1   
     2     1    14 1   
     3     1    15 1   
     4     1    16 1   
     5     2     3 2   
     6     3    13 1   
     7     4     5 1   
     8     4    13 1   
     9     4    17 1   
    10     4    18 1   
    11     5     6 ar  
    12     5    12 ar  
    13     6     7 ar  
    14     6    19 1   
    15     7     8 ar  
    16     7    20 1   
    17     8     9 1   
    18     8    10 ar  
    19    10    11 1   
    20    10    12 ar  
    21    11    21 1   
    22    11    22 1   
    23    11    23 1   
    24    12    24 1   
    25    13    25 1   
@<TRIPOS>SUBSTRUCTURE
     1 J5D         1 TEMP              0 ****  ****    0 ROOT
