@<TRIPOS>MOLECULE
J5E
   52    55     1     0     0
SMALL
abcg2


@<TRIPOS>ATOM
      1 C20         -4.6510     0.2380     0.2040 ca         1 J5E      -0.089500
      2 C21         -5.7360    -0.0020     1.0490 ca         1 J5E      -0.103000
      3 C22         -6.9980     0.3900     0.6650 ca         1 J5E       0.132000
      4 C24         -7.2090     1.0210    -0.5490 ca         1 J5E       0.133000
      5 C26         -6.1480     1.2650    -1.3940 ca         1 J5E      -0.130000
      6 C02          7.4910     1.1160     0.5150 ca         1 J5E      -0.057300
      7 C03          6.7960     2.3200     0.5760 ca         1 J5E      -0.115000
      8 C04          5.4800     2.4140     0.1420 ca         1 J5E      -0.075500
      9 C05          6.8300     0.0050    -0.0110 ca         1 J5E      -0.115000
     10 C06          5.5270     0.0900    -0.4730 ca         1 J5E      -0.075500
     11 C07          4.8390     1.3000    -0.3850 ca         1 J5E      -0.122000
     12 C09          2.3580     0.0690    -0.2170 c6         1 J5E       0.246300
     13 C11          1.9520    -2.2180    -0.4790 c6         1 J5E       0.152300
     14 C12          2.3270    -3.3860    -1.3620 c3         1 J5E       0.172600
     15 C14          0.4460    -2.0660    -0.3030 c6         1 J5E       0.132300
     16 C16          0.2000    -0.8290     0.5720 c6         1 J5E       0.063300
     17 C18         -2.1180    -0.0790    -0.0740 cc         1 J5E      -0.182000
     18 C19         -3.3100    -0.1740     0.6060 cd         1 J5E       0.244500
     19 C27         -4.8720     0.8740    -1.0170 ca         1 J5E      -0.099000
     20 C30          0.8790     0.4160     0.0030 c6         1 J5E       0.150300
     21 F23         -8.0430     0.1630     1.4670 f          1 J5E      -0.160000
     22 F25         -8.4480     1.3880    -0.8900 f          1 J5E      -0.161000
     23 N17         -1.2180    -0.6060     0.7700 na         1 J5E       0.136800
     24 N28         -3.0520    -0.7550     1.8000 nd         1 J5E      -0.350000
     25 N29         -1.7970    -1.0100     1.8890 nc         1 J5E      -0.196800
     26 O10          2.4900    -1.0420    -1.0550 os         1 J5E      -0.406000
     27 O15         -0.1730    -1.9260    -1.5560 oh         1 J5E      -0.705000
     28 O31          0.7090     1.4440     0.9330 oh         1 J5E      -0.706000
     29 S08          3.1850     1.4790    -0.9920 ss         1 J5E      -0.160000
     30 H211        -5.6010    -0.4940     2.0030 ha         1 J5E       0.156000
     31 H261        -6.3180     1.7590    -2.3410 ha         1 J5E       0.134000
     32 H013         8.9780     0.3200     1.8480 hc         1 J5E       0.045367
     33 H011         9.5590     0.6110     0.2180 hc         1 J5E       0.045367
     34 H012         9.3020     1.9670     1.3140 hc         1 J5E       0.045367
     35 H041         4.9550     3.3570     0.2220 ha         1 J5E       0.132000
     36 H051         7.3480    -0.9450    -0.0730 ha         1 J5E       0.115500
     37 H061         5.0500    -0.7860    -0.8950 ha         1 J5E       0.132000
     38 H091         2.8340    -0.1060     0.7600 h2         1 J5E       0.072700
     39 H111         2.3850    -2.3820     0.5210 h1         1 J5E       0.058700
     40 H122         1.8040    -4.2760    -0.9870 h1         1 J5E       0.037200
     41 H121         1.9710    -3.2080    -2.3820 h1         1 J5E       0.037200
     42 H141         0.0710    -2.9420     0.2370 h1         1 J5E       0.061700
     43 H161         0.6100    -1.0240     1.5660 h1         1 J5E       0.107700
     44 H181        -1.8600     0.3190    -1.0390 h4         1 J5E       0.176000
     45 H271        -4.0500     1.0750    -1.6900 ha         1 J5E       0.117000
     46 H301         0.4380     0.6640    -0.9730 h1         1 J5E       0.068700
     47 H151        -0.9860    -2.4380    -1.5680 ho         1 J5E       0.514000
     48 H311         1.0930     2.2530     0.5760 ho         1 J5E       0.528000
     49 O13          3.7250    -3.5430    -1.3140 oh         1 J5E      -0.715000
     50 H031         7.2810     3.2000     0.9800 ha         1 J5E       0.115500
     51 C01          8.9060     1.0030     0.9990 c3         1 J5E      -0.050800
     52 H131         3.9690    -4.2300    -1.9410 ho         1 J5E       0.510000
@<TRIPOS>BOND
     1     1     2 ar  
     2     1    18 1   
     3     1    19 ar  
     4     2     3 ar  
     5     2    30 1   
     6     3     4 ar  
     7     3    21 1   
     8     4     5 ar  
     9     4    22 1   
    10     5    19 ar  
    11     5    31 1   
    12     6     7 ar  
    13     6     9 ar  
    14     6    51 1   
    15     7     8 ar  
    16     7    50 1   
    17     8    11 ar  
    18     8    35 1   
    19     9    10 ar  
    20     9    36 1   
    21    10    11 ar  
    22    10    37 1   
    23    11    29 1   
    24    12    20 1   
    25    12    26 1   
    26    12    29 1   
    27    12    38 1   
    28    13    14 1   
    29    13    15 1   
    30    13    26 1   
    31    13    39 1   
    32    14    40 1   
    33    14    41 1   
    34    14    49 1   
    35    15    16 1   
    36    15    27 1   
    37    15    42 1   
    38    16    20 1   
    39    16    23 1   
    40    16    43 1   
    41    17    18 2   
    42    17    23 1   
    43    17    44 1   
    44    18    24 1   
    45    19    45 1   
    46    20    28 1   
    47    20    46 1   
    48    23    25 1   
    49    24    25 2   
    50    27    47 1   
    51    28    48 1   
    52    32    51 1   
    53    33    51 1   
    54    34    51 1   
    55    49    52 1   
@<TRIPOS>SUBSTRUCTURE
     1 J5E         1 TEMP              0 ****  ****    0 ROOT
