@<TRIPOS>MOLECULE
J5E
   52    55     1     0     0
SMALL
No Charge or Current Charge


@<TRIPOS>ATOM
      1 C20         -4.8190     0.1140     0.0980 ca         1 J5E      -0.089500
      2 C21         -6.0270    -0.2570     0.7330 ca         1 J5E      -0.103000
      3 C22         -7.2560     0.2500     0.2790 ca         1 J5E       0.132000
      4 C24         -7.2960     1.1340    -0.8140 ca         1 J5E       0.133000
      5 C26         -6.1050     1.5100    -1.4530 ca         1 J5E      -0.130000
      6 C02          7.6910     1.0270     0.2130 ca         1 J5E      -0.057300
      7 C03          7.1800     2.2550    -0.2450 ca         1 J5E      -0.115000
      8 C04          5.7910     2.4540    -0.3370 ca         1 J5E      -0.075500
      9 C05          6.7980     0.0010     0.5720 ca         1 J5E      -0.115000
     10 C06          5.4090     0.1980     0.4800 ca         1 J5E      -0.075500
     11 C07          4.8950     1.4310     0.0220 ca         1 J5E      -0.122000
     12 C09          2.2670     0.2040     0.3490 c6         1 J5E       0.246300
     13 C11          2.0230    -2.1110    -0.3310 c6         1 J5E       0.152300
     14 C12          2.5780    -3.1460    -1.3640 c3         1 J5E       0.172600
     15 C14          0.4610    -2.0490    -0.3070 c6         1 J5E       0.132300
     16 C16          0.0370    -0.9840     0.7520 c6         1 J5E       0.063300
     17 C18         -2.2820    -0.1560     0.0670 cc         1 J5E      -0.182000
     18 C19         -3.5240    -0.4180     0.5740 cd         1 J5E       0.244500
     19 C27         -4.8730     1.0040    -1.0000 ca         1 J5E      -0.099000
     20 C30          0.7170     0.3950     0.4700 c6         1 J5E       0.150300
     21 F23         -8.4000    -0.1180     0.9010 f          1 J5E      -0.160000
     22 F25         -8.4770     1.6260    -1.2560 f          1 J5E      -0.161000
     23 N17         -1.4400    -0.8930     0.8690 na         1 J5E       0.136800
     24 N28         -3.4050    -1.2910     1.6350 nd         1 J5E      -0.350000
     25 N29         -2.1440    -1.5820     1.8130 nc         1 J5E      -0.196800
     26 O10          2.5700    -0.8040    -0.6400 os         1 J5E      -0.406000
     27 O15         -0.0710    -1.7210    -1.6120 oh         1 J5E      -0.705000
     28 O31          0.3850     1.3410     1.5120 oh         1 J5E      -0.706000
     29 S08          3.1320     1.7770    -0.1210 ss         1 J5E      -0.160000
     30 H211        -6.0230    -0.9380     1.5800 ha         1 J5E       0.156000
     31 H261        -6.1370     2.1940    -2.2980 ha         1 J5E       0.134000
     32 H013         9.4440     0.1090     1.1170 hc         1 J5E       0.045367
     33 H011         9.5890     0.3960    -0.6250 hc         1 J5E       0.045367
     34 H012         9.7220     1.7470     0.5140 hc         1 J5E       0.045367
     35 H041         5.4100     3.4100    -0.6920 ha         1 J5E       0.132000
     36 H051         7.1800    -0.9550     0.9230 ha         1 J5E       0.115500
     37 H061         4.7540    -0.6180     0.7660 ha         1 J5E       0.132000
     38 H091         2.6680    -0.0970     1.3280 h2         1 J5E       0.072700
     39 H111         2.3830    -2.4160     0.6630 h1         1 J5E       0.058700
     40 H122         2.1260    -4.1230    -1.1440 h1         1 J5E       0.037200
     41 H121         2.2390    -2.8490    -2.3660 h1         1 J5E       0.037200
     42 H141         0.0860    -3.0330     0.0160 h1         1 J5E       0.061700
     43 H161         0.4070    -1.3290     1.7280 h1         1 J5E       0.107700
     44 H181        -1.9480     0.4620    -0.7530 h4         1 J5E       0.176000
     45 H271        -3.9630     1.3090    -1.5100 ha         1 J5E       0.117000
     46 H301         0.3560     0.7660    -0.5010 h1         1 J5E       0.068700
     47 H151        -0.9430    -2.1710    -1.7000 ho         1 J5E       0.514000
     48 H311         0.6950     2.2300     1.2160 ho         1 J5E       0.528000
     49 O13          4.0160    -3.2520    -1.3420 oh         1 J5E      -0.715000
     50 H031         7.8570     3.0570    -0.5290 ha         1 J5E       0.115500
     51 C01          9.1930     0.8080     0.3100 c3         1 J5E      -0.050800
     52 H131         4.2720    -3.8450    -2.0860 ho         1 J5E       0.510000
@<TRIPOS>BOND
     1     1     2 ar  
     2     1    18 1   
     3     1    19 ar  
     4     2     3 ar  
     5     2    30 1   
     6     3     4 ar  
     7     3    21 1   
     8     4     5 ar  
     9     4    22 1   
    10     5    19 ar  
    11     5    31 1   
    12     6     7 ar  
    13     6     9 ar  
    14     6    51 1   
    15     7     8 ar  
    16     7    50 1   
    17     8    11 ar  
    18     8    35 1   
    19     9    10 ar  
    20     9    36 1   
    21    10    11 ar  
    22    10    37 1   
    23    11    29 1   
    24    12    20 1   
    25    12    26 1   
    26    12    29 1   
    27    12    38 1   
    28    13    14 1   
    29    13    15 1   
    30    13    26 1   
    31    13    39 1   
    32    14    40 1   
    33    14    41 1   
    34    14    49 1   
    35    15    16 1   
    36    15    27 1   
    37    15    42 1   
    38    16    20 1   
    39    16    23 1   
    40    16    43 1   
    41    17    18 2   
    42    17    23 1   
    43    17    44 1   
    44    18    24 1   
    45    19    45 1   
    46    20    28 1   
    47    20    46 1   
    48    23    25 1   
    49    24    25 2   
    50    27    47 1   
    51    28    48 1   
    52    32    51 1   
    53    33    51 1   
    54    34    51 1   
    55    49    52 1   
@<TRIPOS>SUBSTRUCTURE
     1 J5E         1 TEMP              0 ****  ****    0 ROOT
