@<TRIPOS>MOLECULE
J5F
   71    74     1     0     0
SMALL
abcg2


@<TRIPOS>ATOM
      1 C11        144.1780   144.9360   155.0120 cx         1 J5F      -0.079400
      2 C13        143.2860   147.5130   159.2400 c3         1 J5F       0.107000
      3 C14        141.8930   148.1180   159.4580 c3         1 J5F       0.156500
      4 C21        141.7710   144.4350   158.6030 ca         1 J5F      -0.114500
      5 C22        141.4080   143.2080   159.1270 ca         1 J5F      -0.096000
      6 C23        142.1760   142.5940   160.1180 cp         1 J5F      -0.036000
      7 C24        141.8030   141.2700   160.6510 cp         1 J5F      -0.037000
      8 C25        141.2790   140.2840   159.8130 ca         1 J5F      -0.098500
      9 C26        140.9360   139.0370   160.3100 ca         1 J5F      -0.109500
     10 C27        141.1060   138.7250   161.6570 ca         1 J5F      -0.072300
     11 C28        140.6910   137.3880   162.2020 c3         1 J5F      -0.033100
     12 C29        139.2650   137.4050   162.7550 c3         1 J5F      -0.073400
     13 C31        141.6300   139.7090   162.4920 ca         1 J5F      -0.109500
     14 C32        141.9740   140.9580   162.0000 ca         1 J5F      -0.098500
     15 C33        143.3120   143.2630   160.5770 ca         1 J5F      -0.096000
     16 C34        143.6900   144.4840   160.0410 ca         1 J5F      -0.114500
     17 O1         143.8750   147.3850   156.5300 o          1 J5F      -0.604100
     18 C2         143.6840   146.3390   157.1300 c          1 J5F       0.651100
     19 C3         143.8370   145.0140   156.4570 cx         1 J5F      -0.218700
     20 C4         142.7780   144.6300   155.4380 cx         1 J5F      -0.166000
     21 C5         142.2010   143.2670   155.4820 ca         1 J5F       0.384300
     22 N6         140.8770   143.1980   155.3510 nb         1 J5F      -0.669000
     23 C7         140.2880   142.0100   155.4370 ca         1 J5F       0.339900
     24 C8         140.9760   140.8290   155.6600 ca         1 J5F      -0.172000
     25 C9         142.3570   140.8980   155.7880 ca         1 J5F      -0.071000
     26 C10        142.9800   142.1290   155.6940 ca         1 J5F      -0.158000
     27 N12        143.3330   146.2940   158.4450 n          1 J5F      -0.225400
     28 N15        141.2330   148.2450   158.1650 n8         1 J5F      -1.004200
     29 C16        140.9900   147.3680   160.4590 c3         1 J5F      -0.056700
     30 C17        141.6850   147.1820   161.8050 c3         1 J5F      -0.090100
     31 C18        139.6590   148.1090   160.6380 c3         1 J5F      -0.074400
     32 C19        138.6650   147.4110   161.5590 c3         1 J5F      -0.088100
     33 C20        142.9280   145.0710   159.0390 ca         1 J5F      -0.044000
     34 C30        138.8380   136.0480   163.2940 c3         1 J5F      -0.090100
     35 H1         144.8120   144.1160   154.7000 hc         1 J5F       0.085200
     36 H2         144.3340   145.8590   154.4690 hc         1 J5F       0.085200
     37 H3         143.7670   147.3220   160.1990 h1         1 J5F       0.057700
     38 H4         143.9040   148.2540   158.7350 h1         1 J5F       0.057700
     39 H5         142.1010   149.1000   159.9190 h1         1 J5F       0.013700
     40 H6         141.1520   144.9070   157.8500 ha         1 J5F       0.131500
     41 H7         140.5020   142.7320   158.7730 ha         1 J5F       0.118500
     42 H8         141.1590   140.4820   158.7540 ha         1 J5F       0.114500
     43 H9         140.5410   138.2870   159.6330 ha         1 J5F       0.111500
     44 H10        140.7620   136.6320   161.4150 hc         1 J5F       0.046200
     45 H11        141.3780   137.0800   162.9950 hc         1 J5F       0.046200
     46 H12        139.1940   138.1570   163.5460 hc         1 J5F       0.042200
     47 H13        138.5780   137.7240   161.9660 hc         1 J5F       0.042200
     48 H14        141.7710   139.4960   163.5450 ha         1 J5F       0.111500
     49 H15        142.3630   141.7050   162.6820 ha         1 J5F       0.114500
     50 H16        143.9380   142.8080   161.3350 ha         1 J5F       0.118500
     51 H17        144.5960   144.9690   160.3830 ha         1 J5F       0.131500
     52 H18        144.1850   144.1970   157.0780 hc         1 J5F       0.099700
     53 H19        142.0410   145.3960   155.2250 hc         1 J5F       0.114700
     54 H20        139.2090   142.0010   155.3250 h4         1 J5F       0.019100
     55 H21        140.4470   139.8890   155.7300 ha         1 J5F       0.123000
     56 H22        142.9400   140.0030   155.9610 ha         1 J5F       0.119000
     57 H23        144.0550   142.2030   155.7950 ha         1 J5F       0.123000
     58 H24        140.4400   148.8680   158.2390 hn         1 J5F       0.402500
     59 H25        141.8620   148.6860   157.5050 hn         1 J5F       0.402500
     60 H27        140.7600   146.3810   160.0470 hc         1 J5F       0.067700
     61 H28        141.0350   146.6840   162.5240 hc         1 J5F       0.032033
     62 H29        142.5840   146.5710   161.7310 hc         1 J5F       0.032033
     63 H30        141.9710   148.1450   162.2370 hc         1 J5F       0.032033
     64 H31        139.1730   148.2290   159.6670 hc         1 J5F       0.036700
     65 H32        139.8560   149.1210   161.0110 hc         1 J5F       0.036700
     66 H33        137.6970   147.9140   161.5330 hc         1 J5F       0.031367
     67 H34        138.5050   146.3760   161.2520 hc         1 J5F       0.031367
     68 H35        138.9930   147.4010   162.5980 hc         1 J5F       0.031367
     69 H36        137.8170   136.0760   163.6780 hc         1 J5F       0.032367
     70 H37        138.8790   135.2840   162.5160 hc         1 J5F       0.032367
     71 H38        139.4880   135.7230   164.1080 hc         1 J5F       0.032367
@<TRIPOS>BOND
     1     1    19 1   
     2     1    20 1   
     3     1    35 1   
     4     1    36 1   
     5     2     3 1   
     6     2    27 1   
     7     2    37 1   
     8     2    38 1   
     9     3    28 1   
    10     3    29 1   
    11     3    39 1   
    12     4     5 ar  
    13     4    33 ar  
    14     4    40 1   
    15     5     6 ar  
    16     5    41 1   
    17     6     7 1   
    18     6    15 ar  
    19     7     8 ar  
    20     7    14 ar  
    21     8     9 ar  
    22     8    42 1   
    23     9    10 ar  
    24     9    43 1   
    25    10    11 1   
    26    10    13 ar  
    27    11    12 1   
    28    11    44 1   
    29    11    45 1   
    30    12    34 1   
    31    12    46 1   
    32    12    47 1   
    33    13    14 ar  
    34    13    48 1   
    35    14    49 1   
    36    15    16 ar  
    37    15    50 1   
    38    16    33 ar  
    39    16    51 1   
    40    17    18 2   
    41    18    19 1   
    42    18    27 1   
    43    19    20 1   
    44    19    52 1   
    45    20    21 1   
    46    20    53 1   
    47    21    22 ar  
    48    21    26 ar  
    49    22    23 ar  
    50    23    24 ar  
    51    23    54 1   
    52    24    25 ar  
    53    24    55 1   
    54    25    26 ar  
    55    25    56 1   
    56    26    57 1   
    57    27    33 1   
    58    28    58 1   
    59    28    59 1   
    60    29    30 1   
    61    29    31 1   
    62    29    60 1   
    63    30    61 1   
    64    30    62 1   
    65    30    63 1   
    66    31    32 1   
    67    31    64 1   
    68    31    65 1   
    69    32    66 1   
    70    32    67 1   
    71    32    68 1   
    72    34    69 1   
    73    34    70 1   
    74    34    71 1   
@<TRIPOS>SUBSTRUCTURE
     1 J5F         1 TEMP              0 ****  ****    0 ROOT
