@<TRIPOS>MOLECULE
J5F
   71    74     1     0     0
SMALL
No Charge or Current Charge


@<TRIPOS>ATOM
      1 C11        143.7530   144.9990   155.0550 cx         1 J5F      -0.079400
      2 C13        143.4490   147.4450   159.5590 c3         1 J5F       0.107000
      3 C14        142.2770   148.4740   159.6620 c3         1 J5F       0.156500
      4 C21        141.6510   144.3370   158.8370 ca         1 J5F      -0.114500
      5 C22        141.3550   143.0500   159.3120 ca         1 J5F      -0.096000
      6 C23        142.1880   142.4120   160.2620 cp         1 J5F      -0.036000
      7 C24        141.8870   141.0290   160.7500 cp         1 J5F      -0.037000
      8 C25        141.3090   140.0600   159.8920 ca         1 J5F      -0.098500
      9 C26        141.0280   138.7600   160.3480 ca         1 J5F      -0.109500
     10 C27        141.3190   138.3950   161.6740 ca         1 J5F      -0.072300
     11 C28        141.0100   136.9880   162.1700 c3         1 J5F      -0.033100
     12 C29        139.5810   136.8750   162.7410 c3         1 J5F      -0.073400
     13 C31        141.8920   139.3440   162.5400 ca         1 J5F      -0.109500
     14 C32        142.1740   140.6430   162.0830 ca         1 J5F      -0.098500
     15 C33        143.3330   143.1170   160.7090 ca         1 J5F      -0.096000
     16 C34        143.6290   144.4050   160.2290 ca         1 J5F      -0.114500
     17 O1         143.8550   147.4100   156.7770 o          1 J5F      -0.604100
     18 C2         143.5520   146.3510   157.3170 c          1 J5F       0.651100
     19 C3         143.6060   145.0290   156.5660 cx         1 J5F      -0.218700
     20 C4         142.4250   144.6400   155.6860 cx         1 J5F      -0.166000
     21 C5         141.8560   143.2410   155.6930 ca         1 J5F       0.384300
     22 N6         140.5160   143.1570   155.5230 nb         1 J5F      -0.669000
     23 C7         139.9430   141.9320   155.5570 ca         1 J5F       0.339900
     24 C8         140.6750   140.7510   155.7630 ca         1 J5F      -0.172000
     25 C9         142.0650   140.8310   155.9370 ca         1 J5F      -0.071000
     26 C10        142.6620   142.1010   155.8990 ca         1 J5F      -0.158000
     27 N12        143.1740   146.2710   158.6850 n          1 J5F      -0.225400
     28 N15        142.1240   149.1930   158.3740 n8         1 J5F      -1.004200
     29 C16        140.9110   147.8750   160.1590 c3         1 J5F      -0.056700
     30 C17        141.0570   147.1750   161.5410 c3         1 J5F      -0.090100
     31 C18        139.7720   148.9460   160.2020 c3         1 J5F      -0.074400
     32 C19        138.3730   148.4050   160.5720 c3         1 J5F      -0.088100
     33 C20        142.7650   145.0470   159.3220 ca         1 J5F      -0.044000
     34 C30        139.2410   135.4610   163.2510 c3         1 J5F      -0.090100
     35 H1         144.3460   144.1980   154.6180 hc         1 J5F       0.085200
     36 H2         143.8160   145.9440   154.5200 hc         1 J5F       0.085200
     37 H3         143.6920   147.0900   160.5670 h1         1 J5F       0.057700
     38 H4         144.3510   147.9600   159.2030 h1         1 J5F       0.057700
     39 H5         142.5740   149.2340   160.3980 h1         1 J5F       0.013700
     40 H6         140.9970   144.7940   158.0980 ha         1 J5F       0.131500
     41 H7         140.4700   142.5440   158.9360 ha         1 J5F       0.118500
     42 H8         141.0870   140.3110   158.8580 ha         1 J5F       0.114500
     43 H9         140.5850   138.0370   159.6670 ha         1 J5F       0.111500
     44 H10        141.1290   136.2670   161.3520 hc         1 J5F       0.046200
     45 H11        141.7310   136.6950   162.9440 hc         1 J5F       0.046200
     46 H12        139.4630   137.5910   163.5650 hc         1 J5F       0.042200
     47 H13        138.8580   137.1600   161.9660 hc         1 J5F       0.042200
     48 H14        142.1170   139.0770   163.5700 ha         1 J5F       0.111500
     49 H15        142.6050   141.3610   162.7750 ha         1 J5F       0.114500
     50 H16        144.0200   142.6470   161.4080 ha         1 J5F       0.118500
     51 H17        144.5450   144.8950   160.5530 ha         1 J5F       0.131500
     52 H18        144.1260   144.2390   157.1000 hc         1 J5F       0.099700
     53 H19        141.6410   145.3870   155.5770 hc         1 J5F       0.114700
     54 H20        138.8630   141.8980   155.4190 h4         1 J5F       0.019100
     55 H21        140.1660   139.7920   155.7850 ha         1 J5F       0.123000
     56 H22        142.6620   139.9360   156.0990 ha         1 J5F       0.119000
     57 H23        143.7340   142.1970   156.0340 ha         1 J5F       0.123000
     58 H24        142.6630   150.0650   158.4140 hn         1 J5F       0.402500
     59 H25        142.6160   148.6540   157.6460 hn         1 J5F       0.402500
     60 H27        140.6050   147.1100   159.4350 hc         1 J5F       0.067700
     61 H28        140.1250   146.6820   161.8370 hc         1 J5F       0.032033
     62 H29        141.8240   146.3960   161.5280 hc         1 J5F       0.032033
     63 H30        141.3230   147.9020   162.3180 hc         1 J5F       0.032033
     64 H31        139.6770   149.4230   159.2200 hc         1 J5F       0.036700
     65 H32        140.0450   149.7410   160.9080 hc         1 J5F       0.036700
     66 H33        137.6170   149.1870   160.4310 hc         1 J5F       0.031367
     67 H34        138.1040   147.5530   159.9360 hc         1 J5F       0.031367
     68 H35        138.3290   148.0880   161.6200 hc         1 J5F       0.031367
     69 H36        138.2180   135.4330   163.6450 hc         1 J5F       0.032367
     70 H37        139.3160   134.7280   162.4390 hc         1 J5F       0.032367
     71 H38        139.9260   135.1630   164.0530 hc         1 J5F       0.032367
@<TRIPOS>BOND
     1     1    19 1   
     2     1    20 1   
     3     1    35 1   
     4     1    36 1   
     5     2     3 1   
     6     2    27 1   
     7     2    37 1   
     8     2    38 1   
     9     3    28 1   
    10     3    29 1   
    11     3    39 1   
    12     4     5 ar  
    13     4    33 ar  
    14     4    40 1   
    15     5     6 ar  
    16     5    41 1   
    17     6     7 1   
    18     6    15 ar  
    19     7     8 ar  
    20     7    14 ar  
    21     8     9 ar  
    22     8    42 1   
    23     9    10 ar  
    24     9    43 1   
    25    10    11 1   
    26    10    13 ar  
    27    11    12 1   
    28    11    44 1   
    29    11    45 1   
    30    12    34 1   
    31    12    46 1   
    32    12    47 1   
    33    13    14 ar  
    34    13    48 1   
    35    14    49 1   
    36    15    16 ar  
    37    15    50 1   
    38    16    33 ar  
    39    16    51 1   
    40    17    18 2   
    41    18    19 1   
    42    18    27 1   
    43    19    20 1   
    44    19    52 1   
    45    20    21 1   
    46    20    53 1   
    47    21    22 ar  
    48    21    26 ar  
    49    22    23 ar  
    50    23    24 ar  
    51    23    54 1   
    52    24    25 ar  
    53    24    55 1   
    54    25    26 ar  
    55    25    56 1   
    56    26    57 1   
    57    27    33 1   
    58    28    58 1   
    59    28    59 1   
    60    29    30 1   
    61    29    31 1   
    62    29    60 1   
    63    30    61 1   
    64    30    62 1   
    65    30    63 1   
    66    31    32 1   
    67    31    64 1   
    68    31    65 1   
    69    32    66 1   
    70    32    67 1   
    71    32    68 1   
    72    34    69 1   
    73    34    70 1   
    74    34    71 1   
@<TRIPOS>SUBSTRUCTURE
     1 J5F         1 TEMP              0 ****  ****    0 ROOT
