@<TRIPOS>MOLECULE
J5G
   18    18     1     0     0
SMALL
abcg2


@<TRIPOS>ATOM
      1 C4          -2.0570    -0.4430     0.0370 cc         1 J5G       0.190300
      2 C5          -3.3370    -1.1850     0.0390 c3         1 J5G      -0.137400
      3 N1          -0.8410     1.4030     0.0790 nc         1 J5G      -0.435300
      4 O            2.0570    -1.5360    -0.0760 o          1 J5G      -0.570100
      5 C1           2.2950    -0.3450    -0.0320 c          1 J5G       0.616100
      6 C            3.6970     0.1990     0.0040 c3         1 J5G      -0.180100
      7 N            1.3170     0.6040     0.0060 ns         1 J5G      -0.483400
      8 C2          -0.0420     0.3720     0.0240 cd         1 J5G       0.404900
      9 O1          -2.1060     0.8890     0.0870 os         1 J5G      -0.066700
     10 C3          -0.7650    -0.8490    -0.0060 cd         1 J5G      -0.241000
     11 H1          -3.9640    -0.8950    -0.8040 hc         1 J5G       0.063033
     12 H2          -3.1440    -2.2530    -0.0280 hc         1 J5G       0.063033
     13 H3          -3.9020    -0.9970     0.9530 hc         1 J5G       0.063033
     14 H4           4.2870    -0.2670    -0.7840 hc         1 J5G       0.067367
     15 H5           3.7540     1.2800    -0.1090 hc         1 J5G       0.067367
     16 H6           4.1540    -0.0700     0.9570 hc         1 J5G       0.067367
     17 H7           1.5930     1.5740     0.0350 hn         1 J5G       0.337500
     18 H8          -0.3970    -1.8560    -0.0530 ha         1 J5G       0.175000
@<TRIPOS>BOND
     1     1     2 1   
     2     1     9 1   
     3     1    10 2   
     4     2    11 1   
     5     2    12 1   
     6     2    13 1   
     7     3     8 2   
     8     3     9 1   
     9     4     5 2   
    10     5     6 1   
    11     5     7 1   
    12     6    14 1   
    13     6    15 1   
    14     6    16 1   
    15     7     8 1   
    16     7    17 1   
    17     8    10 1   
    18    10    18 1   
@<TRIPOS>SUBSTRUCTURE
     1 J5G         1 TEMP              0 ****  ****    0 ROOT
