@<TRIPOS>MOLECULE
J5G
   18    18     1     0     0
SMALL
No Charge or Current Charge


@<TRIPOS>ATOM
      1 C4          -2.0800    -0.4090     0.0810 cc         1 J5G       0.190300
      2 C5          -3.3320    -1.2300    -0.0130 c3         1 J5G      -0.137400
      3 N1          -0.8280     1.4830     0.3640 nc         1 J5G      -0.435300
      4 O            2.0450    -1.5720    -0.2950 o          1 J5G      -0.570100
      5 C1           2.2840    -0.3910    -0.0960 c          1 J5G       0.616100
      6 C            3.7100     0.1430    -0.0610 c3         1 J5G      -0.180100
      7 N            1.3190     0.5660     0.1130 ns         1 J5G      -0.483400
      8 C2          -0.0470     0.4450     0.1480 cd         1 J5G       0.404900
      9 O1          -2.1670     0.9400     0.3230 os         1 J5G      -0.066700
     10 C3          -0.7710    -0.7480    -0.0330 cd         1 J5G      -0.241000
     11 H1          -3.9740    -0.8680    -0.8240 hc         1 J5G       0.063033
     12 H2          -3.0970    -2.2820    -0.2090 hc         1 J5G       0.063033
     13 H3          -3.9010    -1.1770     0.9220 hc         1 J5G       0.063033
     14 H4           4.4570    -0.6410    -0.2300 hc         1 J5G       0.067367
     15 H5           3.8060     0.9560    -0.7890 hc         1 J5G       0.067367
     16 H6           3.8750     0.6590     0.8920 hc         1 J5G       0.067367
     17 H7           1.6910     1.4930     0.2610 hn         1 J5G       0.337500
     18 H8          -0.3900    -1.7410    -0.2250 ha         1 J5G       0.175000
@<TRIPOS>BOND
     1     1     2 1   
     2     1     9 1   
     3     1    10 2   
     4     2    11 1   
     5     2    12 1   
     6     2    13 1   
     7     3     8 2   
     8     3     9 1   
     9     4     5 2   
    10     5     6 1   
    11     5     7 1   
    12     6    14 1   
    13     6    15 1   
    14     6    16 1   
    15     7     8 1   
    16     7    17 1   
    17     8    10 1   
    18    10    18 1   
@<TRIPOS>SUBSTRUCTURE
     1 J5G         1 TEMP              0 ****  ****    0 ROOT
