@<TRIPOS>MOLECULE
J5I
   21    22     1     0     0
SMALL
No Charge or Current Charge


@<TRIPOS>ATOM
      1 C01          3.1490     1.3840     0.0020 c3         1 J5I      -0.037900
      2 C05          1.7830     0.7370    -0.0020 cc         1 J5I      -0.178400
      3 C06          0.5920     1.4430    -0.0330 cd         1 J5I      -0.097200
      4 C08         -0.7020     0.7520    -0.0350 ca         1 J5I      -0.127800
      5 C09         -1.9170     1.4600    -0.0660 ca         1 J5I      -0.052000
      6 C11         -3.1370     0.7580    -0.0670 ca         1 J5I      -0.146000
      7 C13         -3.1440    -0.6480    -0.0350 ca         1 J5I      -0.059000
      8 C15         -1.9290    -1.3550    -0.0040 ca         1 J5I      -0.166000
      9 C17         -0.7140    -0.6510    -0.0040 ca         1 J5I       0.096600
     10 N18          0.5180    -1.3230     0.0280 ns         1 J5I      -0.372100
     11 C20          1.7720    -0.7590     0.0310 c          1 J5I       0.560200
     12 O21          2.7730    -1.4600     0.0600 o          1 J5I      -0.554000
     13 H011         3.7110     1.1100     0.9030 hc         1 J5I       0.049367
     14 H012         3.7350     1.0710    -0.8710 hc         1 J5I       0.049367
     15 H013         3.0750     2.4770    -0.0230 hc         1 J5I       0.049367
     16 H06          0.6180     2.5290    -0.0570 ha         1 J5I       0.186000
     17 H09         -1.9190     2.5480    -0.0910 ha         1 J5I       0.117000
     18 H11         -4.0770     1.3050    -0.0910 ha         1 J5I       0.119000
     19 H13         -4.0890    -1.1880    -0.0360 ha         1 J5I       0.116000
     20 H15         -1.9350    -2.4420     0.0200 ha         1 J5I       0.120000
     21 H18          0.4900    -2.3340     0.0500 hn         1 J5I       0.326500
@<TRIPOS>BOND
     1     1     2 1   
     2     1    13 1   
     3     1    14 1   
     4     1    15 1   
     5     2     3 2   
     6     2    11 1   
     7     3     4 1   
     8     3    16 1   
     9     4     5 ar  
    10     4     9 ar  
    11     5     6 ar  
    12     5    17 1   
    13     6     7 ar  
    14     6    18 1   
    15     7     8 ar  
    16     7    19 1   
    17     8     9 ar  
    18     8    20 1   
    19     9    10 1   
    20    10    11 1   
    21    10    21 1   
    22    11    12 2   
@<TRIPOS>SUBSTRUCTURE
     1 J5I         1 TEMP              0 ****  ****    0 ROOT
