@<TRIPOS>MOLECULE
J5I
   21    22     1     0     0
SMALL
abcg2


@<TRIPOS>ATOM
      1 C01          3.0980     1.3800     0.0020 c3         1 J5I      -0.037900
      2 C05          1.7600     0.7190    -0.0020 cc         1 J5I      -0.178400
      3 C06          0.5960     1.4040    -0.0320 cd         1 J5I      -0.097200
      4 C08         -0.6790     0.7520    -0.0350 ca         1 J5I      -0.127800
      5 C09         -1.8950     1.4470    -0.0660 ca         1 J5I      -0.052000
      6 C11         -3.0940     0.7670    -0.0660 ca         1 J5I      -0.146000
      7 C13         -3.0960    -0.6310    -0.0340 ca         1 J5I      -0.059000
      8 C15         -1.9130    -1.3400    -0.0040 ca         1 J5I      -0.166000
      9 C17         -0.6980    -0.6490    -0.0040 ca         1 J5I       0.096600
     10 N18          0.4980    -1.3180     0.0260 ns         1 J5I      -0.372100
     11 C20          1.7400    -0.7440     0.0300 c          1 J5I       0.560200
     12 O21          2.7530    -1.4330     0.0600 o          1 J5I      -0.554000
     13 H011         3.6690     1.1170     0.8930 hc         1 J5I       0.049367
     14 H012         3.6960     1.0730    -0.8590 hc         1 J5I       0.049367
     15 H013         2.9940     2.4630    -0.0270 hc         1 J5I       0.049367
     16 H06          0.6140     2.4880    -0.0550 ha         1 J5I       0.186000
     17 H09         -1.8790     2.5300    -0.0890 ha         1 J5I       0.117000
     18 H11         -4.0280     1.3110    -0.0910 ha         1 J5I       0.119000
     19 H13         -4.0350    -1.1690    -0.0340 ha         1 J5I       0.116000
     20 H15         -1.9200    -2.4230     0.0200 ha         1 J5I       0.120000
     21 H18          0.4740    -2.3290     0.0470 hn         1 J5I       0.326500
@<TRIPOS>BOND
     1     1     2 1   
     2     1    13 1   
     3     1    14 1   
     4     1    15 1   
     5     2     3 2   
     6     2    11 1   
     7     3     4 1   
     8     3    16 1   
     9     4     5 ar  
    10     4     9 ar  
    11     5     6 ar  
    12     5    17 1   
    13     6     7 ar  
    14     6    18 1   
    15     7     8 ar  
    16     7    19 1   
    17     8     9 ar  
    18     8    20 1   
    19     9    10 1   
    20    10    11 1   
    21    10    21 1   
    22    11    12 2   
@<TRIPOS>SUBSTRUCTURE
     1 J5I         1 TEMP              0 ****  ****    0 ROOT
