@<TRIPOS>MOLECULE
J5J
   23    23     1     0     0
SMALL
bcc


@<TRIPOS>ATOM
      1 C            4.1670    -0.4920     0.4640 c3         1 J5J      -0.174100
      2 O            3.5370     0.7960    -1.4600 o          1 J5J      -0.543100
      3 C1           3.2160     0.0520    -0.5600 c          1 J5J       0.703500
      4 C2           0.9440     0.3470    -0.2520 ce         1 J5J       0.563800
      5 C3          -0.4390    -0.1190    -0.1820 ca         1 J5J      -0.173900
      6 C4          -0.7680    -1.4690    -0.3160 ca         1 J5J      -0.077000
      7 C5          -2.0940    -1.8540    -0.2570 ca         1 J5J      -0.139000
      8 C6          -3.0940    -0.9050    -0.0660 ca         1 J5J      -0.105000
      9 N            1.9230    -0.4380    -0.4330 nf         1 J5J      -0.683100
     10 C7          -2.7870     0.4460     0.0750 ca         1 J5J      -0.085300
     11 C9          -1.4490     0.8220     0.0120 ca         1 J5J      -0.099000
     12 C8          -3.8650     1.4640     0.3110 c3         1 J5J      -0.046800
     13 H1           3.8620    -0.1670     1.4610 hc         1 J5J       0.065367
     14 H2           4.1380    -1.5810     0.4650 hc         1 J5J       0.065367
     15 H3           5.1830    -0.1560     0.2760 hc         1 J5J       0.065367
     16 H4           1.0860     1.4250    -0.1270 h4         1 J5J      -0.021200
     17 H5           0.0130    -2.2040    -0.4630 ha         1 J5J       0.153000
     18 H6          -2.3580    -2.8980    -0.3640 ha         1 J5J       0.136000
     19 H7          -4.1290    -1.2240    -0.0260 ha         1 J5J       0.131000
     20 H8          -1.1850     1.8690     0.1140 ha         1 J5J       0.130000
     21 H9          -4.0680     1.5740     1.3780 hc         1 J5J       0.044033
     22 H10         -3.5800     2.4440    -0.0690 hc         1 J5J       0.044033
     23 H11         -4.7990     1.1720    -0.1680 hc         1 J5J       0.044033
@<TRIPOS>BOND
     1     1     3 1   
     2     1    13 1   
     3     1    14 1   
     4     1    15 1   
     5     2     3 2   
     6     3     9 1   
     7     4     5 1   
     8     4     9 2   
     9     4    16 1   
    10     5     6 ar  
    11     5    11 ar  
    12     6     7 ar  
    13     6    17 1   
    14     7     8 ar  
    15     7    18 1   
    16     8    10 ar  
    17     8    19 1   
    18    10    11 ar  
    19    10    12 1   
    20    11    20 1   
    21    12    21 1   
    22    12    22 1   
    23    12    23 1   
@<TRIPOS>SUBSTRUCTURE
     1 J5J         1 TEMP              0 ****  ****    0 ROOT
