@<TRIPOS>MOLECULE
J5J
   23    23     1     0     0
SMALL
No Charge or Current Charge


@<TRIPOS>ATOM
      1 C            4.2950    -0.6190     0.3900 c3         1 J5J      -0.174100
      2 O            3.5750     1.0490    -1.2070 o          1 J5J      -0.543100
      3 C1           3.2830     0.1160    -0.4750 c          1 J5J       0.703500
      4 C2           0.9570     0.4400    -0.2500 ce         1 J5J       0.563800
      5 C3          -0.4530    -0.0520    -0.1720 ca         1 J5J      -0.173900
      6 C4          -0.7620    -1.4290    -0.2490 ca         1 J5J      -0.059000
      7 C5          -2.0970    -1.8610    -0.1700 ca         1 J5J      -0.121000
      8 C6          -3.1340    -0.9270    -0.0130 ca         1 J5J      -0.087000
      9 N            1.9720    -0.3700    -0.3800 nf         1 J5J      -0.683100
     10 C7          -2.8410     0.4470     0.0640 ca         1 J5J      -0.085300
     11 C9          -1.5030     0.8780    -0.0140 ca         1 J5J      -0.081000
     12 C8          -3.9630     1.4610     0.2380 c3         1 J5J      -0.046800
     13 H1           3.9550    -0.5980     1.4310 hc         1 J5J       0.065367
     14 H2           4.2530    -1.6880     0.1530 hc         1 J5J       0.065367
     15 H3           5.3090    -0.2180     0.2840 hc         1 J5J       0.065367
     16 H4           1.1120     1.5180    -0.1690 h4         1 J5J      -0.021200
     17 H5           0.0280    -2.1680    -0.3710 ha         1 J5J       0.135000
     18 H6          -2.3270    -2.9220    -0.2290 ha         1 J5J       0.118000
     19 H7          -4.1640    -1.2720     0.0500 ha         1 J5J       0.113000
     20 H8          -1.2790     1.9410     0.0500 ha         1 J5J       0.112000
     21 H9          -4.1320     1.6770     1.2990 hc         1 J5J       0.044033
     22 H10         -3.7260     2.4070    -0.2630 hc         1 J5J       0.044033
     23 H11         -4.9050     1.0930    -0.1840 hc         1 J5J       0.044033
@<TRIPOS>BOND
     1     1     3 1   
     2     1    13 1   
     3     1    14 1   
     4     1    15 1   
     5     2     3 2   
     6     3     9 1   
     7     4     5 1   
     8     4     9 2   
     9     4    16 1   
    10     5     6 ar  
    11     5    11 ar  
    12     6     7 ar  
    13     6    17 1   
    14     7     8 ar  
    15     7    18 1   
    16     8    10 ar  
    17     8    19 1   
    18    10    11 ar  
    19    10    12 1   
    20    11    20 1   
    21    12    21 1   
    22    12    22 1   
    23    12    23 1   
@<TRIPOS>SUBSTRUCTURE
     1 J5J         1 TEMP              0 ****  ****    0 ROOT
