@<TRIPOS>MOLECULE
J5K
   52    54     1     0     0
SMALL
No Charge or Current Charge


@<TRIPOS>ATOM
      1 C4          16.8320   -27.1660   -15.2760 ca         1 J5K      -0.111500
      2 C5          15.7650   -27.7550   -14.5780 ca         1 J5K      -0.110000
      3 C6          15.5660   -27.4560   -13.2190 ca         1 J5K      -0.111500
      4 N1          16.6100   -23.0050   -14.8280 n          1 J5K      -0.421800
      5 C7          16.4310   -26.5650   -12.5610 ca         1 J5K      -0.106500
      6 C8          17.8350   -23.0140   -14.1160 c          1 J5K       0.605100
      7 N2          16.4310   -20.3550   -15.4700 ns         1 J5K      -0.494900
      8 C9          16.5370   -22.6380   -16.2780 c5         1 J5K       0.025700
      9 C10         16.4860   -21.1100   -16.6210 c          1 J5K       0.596100
     10 C11         16.2920   -18.9050   -15.4340 c3         1 J5K       0.169300
     11 C12         14.8370   -18.5040   -15.5860 ca         1 J5K      -0.216300
     12 C13         13.9340   -18.6450   -14.5170 ca         1 J5K      -0.030000
     13 C14         12.6020   -18.2630   -14.7320 ca         1 J5K      -0.231000
     14 C15         12.2490   -17.7640   -15.9880 ca         1 J5K       0.590900
     15 N4          13.0760   -17.6250   -17.0130 nb         1 J5K      -0.738000
     16 O1          18.8530   -22.6020   -14.6650 o          1 J5K      -0.605100
     17 C           17.8750   -23.5220   -12.6200 c3         1 J5K       0.090500
     18 C2          17.5000   -25.9680   -13.2570 ca         1 J5K      -0.087300
     19 C3          17.6990   -26.2770   -14.6170 ca         1 J5K      -0.106500
     20 N           18.6450   -22.6480   -11.6680 n8         1 J5K      -0.990200
     21 C19         15.3180   -23.4960   -14.2920 c5         1 J5K       0.099000
     22 C18         14.3280   -23.0850   -15.4100 c5         1 J5K      -0.095400
     23 C17         15.1860   -23.3000   -16.6830 c5         1 J5K      -0.080400
     24 O           16.5020   -20.6130   -17.7400 o          1 J5K      -0.609100
     25 C16         14.3630   -17.9940   -16.8120 ca         1 J5K       0.407900
     26 H1          16.9870   -27.3960   -16.3280 ha         1 J5K       0.115500
     27 H2          15.0940   -28.4430   -15.0880 ha         1 J5K       0.115000
     28 H3          14.7400   -27.9120   -12.6780 ha         1 J5K       0.115500
     29 H4          16.2640   -26.3320   -11.5110 ha         1 J5K       0.117000
     30 H5          16.4290   -20.8700   -14.5990 hn         1 J5K       0.322500
     31 H6          17.3740   -23.0660   -16.8460 h1         1 J5K       0.100700
     32 H7          16.9000   -18.4580   -16.2330 h1         1 J5K       0.061200
     33 H8          16.6780   -18.5370   -14.4740 h1         1 J5K       0.061200
     34 H9          10.8420   -17.2650   -17.2980 hn         1 J5K       0.469500
     35 H10         10.2460   -17.7400   -15.7500 hn         1 J5K       0.469500
     36 H11         14.2540   -19.0400   -13.5540 ha         1 J5K       0.108000
     37 H12         11.8640   -18.3510   -13.9410 ha         1 J5K       0.118000
     38 H13         16.8460   -23.5450   -12.2430 h1         1 J5K       0.068700
     39 H16         18.5180   -25.8200   -15.1690 ha         1 J5K       0.117000
     40 H17         18.7540   -23.1300   -10.7670 hn         1 J5K       0.410000
     41 H18         19.6100   -22.5500   -12.0100 hn         1 J5K       0.410000
     42 H20         15.0520   -23.0330   -13.3330 h1         1 J5K       0.053700
     43 H21         15.3360   -24.5860   -14.1650 h1         1 J5K       0.053700
     44 H22         14.0200   -22.0380   -15.3050 hc         1 J5K       0.057200
     45 H23         13.4180   -23.6940   -15.4040 hc         1 J5K       0.057200
     46 H24         14.7390   -22.8570   -17.5810 hc         1 J5K       0.068200
     47 H25         15.3210   -24.3690   -16.8850 hc         1 J5K       0.068200
     48 H26         15.0350   -17.8770   -17.6630 h4         1 J5K       0.025100
     49 C1          18.4150   -24.9740   -12.5520 c3         1 J5K      -0.064100
     50 N3          11.0120   -17.3760   -16.3060 nv         1 J5K      -1.054900
     51 H14         18.5290   -25.2710   -11.5020 hc         1 J5K       0.058700
     52 H15         19.4210   -25.0090   -12.9880 hc         1 J5K       0.058700
@<TRIPOS>BOND
     1     1     2 ar  
     2     1    19 ar  
     3     1    26 1   
     4     2     3 ar  
     5     2    27 1   
     6     3     5 ar  
     7     3    28 1   
     8     4     6 1   
     9     4     8 1   
    10     4    21 1   
    11     5    18 ar  
    12     5    29 1   
    13     6    16 2   
    14     6    17 1   
    15     7     9 1   
    16     7    10 1   
    17     7    30 1   
    18     8     9 1   
    19     8    23 1   
    20     8    31 1   
    21     9    24 2   
    22    10    11 1   
    23    10    32 1   
    24    10    33 1   
    25    11    12 ar  
    26    11    25 ar  
    27    12    13 ar  
    28    12    36 1   
    29    13    14 ar  
    30    13    37 1   
    31    14    15 ar  
    32    14    50 1   
    33    15    25 ar  
    34    17    20 1   
    35    17    38 1   
    36    17    49 1   
    37    18    19 ar  
    38    18    49 1   
    39    19    39 1   
    40    20    40 1   
    41    20    41 1   
    42    21    22 1   
    43    21    42 1   
    44    21    43 1   
    45    22    23 1   
    46    22    44 1   
    47    22    45 1   
    48    23    46 1   
    49    23    47 1   
    50    25    48 1   
    51    34    50 1   
    52    35    50 1   
    53    49    51 1   
    54    49    52 1   
@<TRIPOS>SUBSTRUCTURE
     1 J5K         1 TEMP              0 ****  ****    0 ROOT
