@<TRIPOS>MOLECULE
J5K
   52    54     1     0     0
SMALL
abcg2


@<TRIPOS>ATOM
      1 C4          16.6570   -26.9340   -15.4580 ca         1 J5K      -0.111500
      2 C5          15.6930   -27.6160   -14.7220 ca         1 J5K      -0.110000
      3 C6          15.6930   -27.5180   -13.3330 ca         1 J5K      -0.111500
      4 N1          16.5800   -23.0090   -14.5210 n          1 J5K      -0.421800
      5 C7          16.6420   -26.7300   -12.6910 ca         1 J5K      -0.106500
      6 C8          17.8240   -23.0740   -14.0070 c          1 J5K       0.605100
      7 N2          16.3740   -20.3300   -15.1660 ns         1 J5K      -0.494900
      8 C9          16.3900   -22.6580   -15.9300 c5         1 J5K       0.025700
      9 C10         16.4310   -21.1570   -16.2200 c          1 J5K       0.596100
     10 C11         16.2240   -18.8870   -15.3020 c3         1 J5K       0.169300
     11 C12         14.8190   -18.4790   -15.6650 ca         1 J5K      -0.216300
     12 C13         13.7190   -18.8510   -14.8810 ca         1 J5K      -0.030000
     13 C14         12.4490   -18.4670   -15.2480 ca         1 J5K      -0.231000
     14 C15         12.2850   -17.7000   -16.4180 ca         1 J5K       0.590900
     15 N4          13.3260   -17.3440   -17.1790 nb         1 J5K      -0.738000
     16 O1          18.8100   -22.7070   -14.6530 o          1 J5K      -0.605100
     17 C           18.0100   -23.6470   -12.6050 c3         1 J5K       0.090500
     18 C2          17.6060   -26.0310   -13.4190 ca         1 J5K      -0.087300
     19 C3          17.6080   -26.1540   -14.8100 ca         1 J5K      -0.106500
     20 N           18.8930   -22.7430   -11.8710 n8         1 J5K      -0.990200
     21 C19         15.3270   -23.4750   -13.8870 c5         1 J5K       0.099000
     22 C18         14.2570   -23.1300   -14.9220 c5         1 J5K      -0.095400
     23 C17         15.0030   -23.2390   -16.2540 c5         1 J5K      -0.080400
     24 O           16.4750   -20.7650   -17.3860 o          1 J5K      -0.609100
     25 C16         14.5500   -17.7320   -16.7990 ca         1 J5K       0.407900
     26 H1          16.6680   -27.0080   -16.5390 ha         1 J5K       0.115500
     27 H2          14.9510   -28.2230   -15.2250 ha         1 J5K       0.115000
     28 H3          14.9500   -28.0490   -12.7510 ha         1 J5K       0.115500
     29 H4          16.6300   -26.6450   -11.6100 ha         1 J5K       0.117000
     30 H5          16.3350   -20.7320   -14.2430 hn         1 J5K       0.322500
     31 H6          17.1750   -23.1080   -16.5340 h1         1 J5K       0.100700
     32 H7          16.9190   -18.5290   -16.0620 h1         1 J5K       0.061200
     33 H8          16.5190   -18.4500   -14.3480 h1         1 J5K       0.061200
     34 H9          10.9620   -16.9520   -17.7590 hn         1 J5K       0.469500
     35 H10         10.2430   -17.7470   -16.4430 hn         1 J5K       0.469500
     36 H11         13.8650   -19.4490   -13.9890 ha         1 J5K       0.108000
     37 H12         11.5850   -18.7430   -14.6560 ha         1 J5K       0.118000
     38 H13         17.0570   -23.6830   -12.0810 h1         1 J5K       0.068700
     39 H16         18.3510   -25.6210   -15.3920 ha         1 J5K       0.117000
     40 H17         19.1110   -23.1480   -10.9660 hn         1 J5K       0.410000
     41 H18         19.7700   -22.6570   -12.3750 hn         1 J5K       0.410000
     42 H20         15.1660   -22.9730   -12.9350 h1         1 J5K       0.053700
     43 H21         15.3730   -24.5500   -13.7150 h1         1 J5K       0.053700
     44 H22         13.9010   -22.1100   -14.7710 hc         1 J5K       0.057200
     45 H23         13.4030   -23.8010   -14.8570 hc         1 J5K       0.057200
     46 H24         14.5180   -22.7070   -17.0700 hc         1 J5K       0.068200
     47 H25         15.1170   -24.2850   -16.5420 hc         1 J5K       0.068200
     48 H26         15.3660   -17.4300   -17.4490 h4         1 J5K       0.025100
     49 C1          18.5590   -25.0950   -12.7260 c3         1 J5K      -0.064100
     50 N3          11.0440   -17.2490   -16.7990 nv         1 J5K      -1.054900
     51 H14         18.7590   -25.4450   -11.7110 hc         1 J5K       0.058700
     52 H15         19.5110   -25.0480   -13.2590 hc         1 J5K       0.058700
@<TRIPOS>BOND
     1     1     2 ar  
     2     1    19 ar  
     3     1    26 1   
     4     2     3 ar  
     5     2    27 1   
     6     3     5 ar  
     7     3    28 1   
     8     4     6 1   
     9     4     8 1   
    10     4    21 1   
    11     5    18 ar  
    12     5    29 1   
    13     6    16 2   
    14     6    17 1   
    15     7     9 1   
    16     7    10 1   
    17     7    30 1   
    18     8     9 1   
    19     8    23 1   
    20     8    31 1   
    21     9    24 2   
    22    10    11 1   
    23    10    32 1   
    24    10    33 1   
    25    11    12 ar  
    26    11    25 ar  
    27    12    13 ar  
    28    12    36 1   
    29    13    14 ar  
    30    13    37 1   
    31    14    15 ar  
    32    14    50 1   
    33    15    25 ar  
    34    17    20 1   
    35    17    38 1   
    36    17    49 1   
    37    18    19 ar  
    38    18    49 1   
    39    19    39 1   
    40    20    40 1   
    41    20    41 1   
    42    21    22 1   
    43    21    42 1   
    44    21    43 1   
    45    22    23 1   
    46    22    44 1   
    47    22    45 1   
    48    23    46 1   
    49    23    47 1   
    50    25    48 1   
    51    34    50 1   
    52    35    50 1   
    53    49    51 1   
    54    49    52 1   
@<TRIPOS>SUBSTRUCTURE
     1 J5K         1 TEMP              0 ****  ****    0 ROOT
