@<TRIPOS>MOLECULE
J5L
   91    95     1     0     0
SMALL
No Charge or Current Charge


@<TRIPOS>ATOM
      1 CAA         -6.3650     6.2010     1.2590 c3         1 J5L       0.097300
      2 CAB         11.2210     0.7410     2.5840 c3         1 J5L       0.135100
      3 CAC          4.1490    -3.5760     1.7740 c3         1 J5L      -0.087100
      4 CAD          5.2230    -2.6320    -0.3320 c3         1 J5L      -0.087100
      5 OAE         -6.9960     3.6620     0.1260 o          1 J5L      -0.575100
      6 OAF         -3.0070    -2.7190    -1.0380 o          1 J5L      -0.531000
      7 OAG          3.1140     0.6480     1.8470 o          1 J5L      -0.545000
      8 OAH          2.7080     1.9510    -0.2990 o          1 J5L      -0.545000
      9 OAI          0.1050     1.1670    -0.3060 oh         1 J5L      -0.664000
     10 CAL         -4.3420    -1.6530    -5.1820 ca         1 J5L      -0.114000
     11 CAM         -4.4650    -0.4230    -4.5130 ca         1 J5L      -0.104000
     12 CAN         -3.1370    -2.3720    -5.1110 ca         1 J5L      -0.104000
     13 CAO         -3.3840     0.0870    -3.7740 ca         1 J5L      -0.098000
     14 CAP         -2.0560    -1.8620    -4.3700 ca         1 J5L      -0.098000
     15 CAQ          5.5600     1.0890    -1.2690 ca         1 J5L       0.002000
     16 CAR          6.9380     1.1410    -1.5680 ca         1 J5L      -0.147000
     17 CAS          6.0610     0.8410     1.1300 ca         1 J5L       0.015000
     18 CAT         -5.9770     2.4140     1.9810 c3         1 J5L       0.075600
     19 CAU         -6.7970    -0.2880     3.1960 c5         1 J5L       0.121600
     20 CAV         -4.8830    -3.0010     1.4240 c5         1 J5L       0.124600
     21 CAW         -1.0040    -0.0880    -2.8810 c3         1 J5L      -0.057100
     22 CAX          2.8910    -1.8230     0.4080 c3         1 J5L       0.227800
     23 CAY          1.7000    -0.4630    -1.3000 c3         1 J5L       0.199800
     24 NAZ          9.2000     1.0510    -0.5030 na         1 J5L      -0.382600
     25 NBA         -6.0660     4.8760     1.8090 ns         1 J5L      -0.514900
     26 NBC         -2.1440    -0.6110    -0.7380 ns         1 J5L      -0.472900
     27 OBD         -6.3330     1.1860     1.2990 os         1 J5L      -0.412000
     28 OBE         -6.8030    -1.7190     3.3190 os         1 J5L      -0.461000
     29 OBF         -6.1790    -3.4340     1.8820 os         1 J5L      -0.431000
     30 OBG         -4.1520    -1.0540     0.0840 os         1 J5L      -0.454100
     31 OBH          8.4770     0.8100     1.6830 os         1 J5L      -0.335700
     32 CBI         -6.4050     3.6850     1.1990 c          1 J5L       0.596100
     33 CBJ         -3.0970    -1.5790    -0.6070 c          1 J5L       0.644100
     34 CBK         -2.1730    -0.6300    -3.6970 ca         1 J5L      -0.100300
     35 CBL          5.1220     0.9360     0.0730 ca         1 J5L      -0.306500
     36 CBM          9.5500     0.9130     0.8150 cc         1 J5L       0.686100
     37 CBN          7.8360     1.0370    -0.5030 ca         1 J5L       0.027800
     38 CBO          7.4210     0.8930     0.8020 ca         1 J5L       0.026100
     39 CBP          4.2860    -2.3350     0.8640 c3         1 J5L      -0.085700
     40 CBQ          0.3080    -0.2300    -0.6190 c3         1 J5L       0.149300
     41 CBR         -0.8850    -0.7510    -1.4800 c3         1 J5L       0.092700
     42 CBS         -5.9390    -0.0600     1.9260 c5         1 J5L       0.142300
     43 CBT         -5.2520    -1.9760     0.3160 c5         1 J5L       0.164300
     44 CBV         -7.0130    -2.2660     2.0040 c5         1 J5L       0.374300
     45 CBW         -6.4460    -1.2150     0.9940 c5         1 J5L      -0.134700
     46 SBX          3.3640     0.8520     0.4170 sy         1 J5L       1.201600
     47 HAA         -5.8810     6.3130     0.2800 h1         1 J5L       0.042367
     48 HAAA        -7.4510     6.3170     1.1450 h1         1 J5L       0.042367
     49 HAAB        -5.9880     6.9750     1.9400 h1         1 J5L       0.042367
     50 HAB         12.3170     0.7440     2.6540 h1         1 J5L       0.042700
     51 HABA        10.8410     1.5640     3.2030 h1         1 J5L       0.042700
     52 HABB        10.8590    -0.2030     3.0140 h1         1 J5L       0.042700
     53 HAC          5.1320    -3.9050     2.1320 hc         1 J5L       0.037033
     54 HACA         3.5300    -3.3480     2.6500 hc         1 J5L       0.037033
     55 HACB         3.6850    -4.4100     1.2330 hc         1 J5L       0.037033
     56 HAD          4.8120    -3.4310    -0.9600 hc         1 J5L       0.037033
     57 HADA         5.3610    -1.7450    -0.9600 hc         1 J5L       0.037033
     58 HADB         6.2120    -2.9480     0.0210 hc         1 J5L       0.037033
     59 HOAI         0.9990     1.5940    -0.3200 ho         1 J5L       0.468000
     60 HAL         -5.1790    -2.0480    -5.7540 ha         1 J5L       0.109000
     61 HAM         -5.3980     0.1340    -4.5660 ha         1 J5L       0.121500
     62 HAN         -3.0400    -3.3250    -5.6270 ha         1 J5L       0.121500
     63 HAO         -3.4910     1.0360    -3.2540 ha         1 J5L       0.111500
     64 HAP         -1.1280    -2.4280    -4.3160 ha         1 J5L       0.111500
     65 HAR          7.2860     1.2530    -2.5920 ha         1 J5L       0.132000
     66 HAS          5.7520     0.7250     2.1670 ha         1 J5L       0.161000
     67 HAT         -6.4520     2.4620     2.9690 h1         1 J5L       0.038200
     68 HATA        -4.8910     2.4680     2.1300 h1         1 J5L       0.038200
     69 HAU         -7.8280     0.0700     3.0690 h1         1 J5L       0.056200
     70 HAUA        -6.3610     0.1650     4.0960 h1         1 J5L       0.056200
     71 HAV         -4.3330    -2.5380     2.2550 h1         1 J5L       0.067700
     72 HAVA        -4.3130    -3.8600     1.0450 h1         1 J5L       0.067700
     73 HAW         -0.0740    -0.2430    -3.4400 hc         1 J5L       0.054200
     74 HAWA        -1.1040     0.9980    -2.7600 hc         1 J5L       0.054200
     75 HAX          2.4390    -2.6370    -0.1760 h1         1 J5L       0.064700
     76 HAXA         2.2530    -1.7010     1.2950 h1         1 J5L       0.064700
     77 HAY          1.6280    -1.3940    -1.8800 h1         1 J5L       0.060700
     78 HAYA         1.8630     0.3230    -2.0490 h1         1 J5L       0.060700
     79 HNAZ         9.8350     1.1410    -1.2800 hn         1 J5L       0.383000
     80 HNBA        -5.5770     4.8180     2.6960 hn         1 J5L       0.313500
     81 HNBC        -2.3560     0.2820    -0.3140 hn         1 J5L       0.328500
     82 HBP          4.7590    -1.5590     1.4740 hc         1 J5L       0.049700
     83 HBQ          0.2980    -0.8180     0.3090 h1         1 J5L       0.082700
     84 HBR         -0.7120    -1.8230    -1.6440 h1         1 J5L       0.084700
     85 HBS         -4.8640    -0.0740     2.1520 h1         1 J5L       0.062700
     86 HBT         -5.5600    -2.4680    -0.6180 h1         1 J5L       0.091700
     87 HBV         -8.0730    -2.4990     1.8330 h2         1 J5L       0.091700
     88 HBW         -7.2040    -0.8900     0.2750 hc         1 J5L       0.099700
     89 NBU          2.8860    -0.5750    -0.4020 n3         1 J5L      -0.793500
     90 HAQ          4.8330     1.1580    -2.0770 ha         1 J5L       0.130000
     91 NBB         10.7880     0.8860     1.1890 n2         1 J5L      -0.676900
@<TRIPOS>BOND
     1     1    25 1   
     2     1    47 1   
     3     1    48 1   
     4     1    49 1   
     5     2    50 1   
     6     2    51 1   
     7     2    52 1   
     8     2    91 1   
     9     3    39 1   
    10     3    53 1   
    11     3    54 1   
    12     3    55 1   
    13     4    39 1   
    14     4    56 1   
    15     4    57 1   
    16     4    58 1   
    17     5    32 2   
    18     6    33 2   
    19     7    46 2   
    20     8    46 2   
    21     9    40 1   
    22     9    59 1   
    23    10    11 ar  
    24    10    12 ar  
    25    10    60 1   
    26    11    13 ar  
    27    11    61 1   
    28    12    14 ar  
    29    12    62 1   
    30    13    34 ar  
    31    13    63 1   
    32    14    34 ar  
    33    14    64 1   
    34    15    16 ar  
    35    15    35 ar  
    36    15    90 1   
    37    16    37 ar  
    38    16    65 1   
    39    17    35 ar  
    40    17    38 ar  
    41    17    66 1   
    42    18    27 1   
    43    18    32 1   
    44    18    67 1   
    45    18    68 1   
    46    19    28 1   
    47    19    42 1   
    48    19    69 1   
    49    19    70 1   
    50    20    29 1   
    51    20    43 1   
    52    20    71 1   
    53    20    72 1   
    54    21    34 1   
    55    21    41 1   
    56    21    73 1   
    57    21    74 1   
    58    22    39 1   
    59    22    75 1   
    60    22    76 1   
    61    22    89 1   
    62    23    40 1   
    63    23    77 1   
    64    23    78 1   
    65    23    89 1   
    66    24    36 1   
    67    24    37 1   
    68    24    79 1   
    69    25    32 1   
    70    25    80 1   
    71    26    33 1   
    72    26    41 1   
    73    26    81 1   
    74    27    42 1   
    75    28    44 1   
    76    29    44 1   
    77    30    33 1   
    78    30    43 1   
    79    31    36 1   
    80    31    38 1   
    81    35    46 1   
    82    36    91 2   
    83    37    38 ar  
    84    39    82 1   
    85    40    41 1   
    86    40    83 1   
    87    41    84 1   
    88    42    45 1   
    89    42    85 1   
    90    43    45 1   
    91    43    86 1   
    92    44    45 1   
    93    44    87 1   
    94    45    88 1   
    95    46    89 1   
@<TRIPOS>SUBSTRUCTURE
     1 J5L         1 TEMP              0 ****  ****    0 ROOT
