@<TRIPOS>MOLECULE
J5L
   91    95     1     0     0
SMALL
bcc


@<TRIPOS>ATOM
      1 CAA         -5.0370     5.5460     0.4340 c3         1 J5L       0.097300
      2 CAB         11.3690     0.5440     0.2470 c3         1 J5L       0.135100
      3 CAC          4.8090    -3.2680     2.6410 c3         1 J5L      -0.087100
      4 CAD          4.7140    -2.5750     0.2210 c3         1 J5L      -0.087100
      5 OAE         -5.3400     3.1260    -0.9200 o          1 J5L      -0.575100
      6 OAF         -2.6690    -2.8750    -0.8220 o          1 J5L      -0.580000
      7 OAG          3.9470     1.2520     2.5870 o          1 J5L      -0.615800
      8 OAH          2.5870     2.0500     0.6220 o          1 J5L      -0.615800
      9 OAI          0.1370     0.5500     1.4280 oh         1 J5L      -0.601800
     10 CAL         -4.1780    -0.4880    -3.9510 ca         1 J5L      -0.132000
     11 CAM         -4.2820     0.3470    -2.8470 ca         1 J5L      -0.122000
     12 CAN         -2.9510    -1.0580    -4.2680 ca         1 J5L      -0.122000
     13 CAO         -3.1660     0.6010    -2.0630 ca         1 J5L      -0.116000
     14 CAP         -1.8410    -0.8070    -3.4740 ca         1 J5L      -0.116000
     15 CAQ          4.8290     1.2270    -1.1800 ca         1 J5L      -0.016000
     16 CAR          5.9390     1.1890    -2.0180 ca         1 J5L      -0.165000
     17 CAS          6.2180     0.9570     0.8080 ca         1 J5L      -0.003000
     18 CAT         -6.1030     1.9790     1.0620 c3         1 J5L       0.052400
     19 CAU         -7.9710    -0.4400     1.3970 c5         1 J5L       0.098400
     20 CAV         -5.6090    -3.4010     1.0020 c5         1 J5L       0.101400
     21 CAW         -0.7550     0.2210    -1.4500 c3         1 J5L      -0.057100
     22 CAX          3.2330    -1.4790     1.9630 c3         1 J5L       0.227800
     23 CAY          1.8000    -0.6390     0.0780 c3         1 J5L       0.199800
     24 NAZ          8.4490     0.9570    -1.9070 na         1 J5L      -0.332300
     25 NBA         -5.5180     4.3040     0.9910 ns         1 J5L      -0.581900
     26 NBC         -1.9540    -1.0220     0.2960 ns         1 J5L      -0.539900
     27 OBD         -6.2750     0.8970     0.2010 os         1 J5L      -0.365600
     28 OBE         -8.2000    -1.8320     1.4430 os         1 J5L      -0.414600
     29 OBF         -6.9760    -3.6360     0.7150 os         1 J5L      -0.384600
     30 OBG         -4.0830    -1.5920     0.3790 os         1 J5L      -0.430900
     31 OBH          8.6060     0.7860     0.2880 os         1 J5L      -0.335700
     32 CBI         -5.6190     3.1820     0.2660 c          1 J5L       0.663100
     33 CBJ         -2.8810    -1.9090    -0.1240 c          1 J5L       0.760100
     34 CBK         -1.9340     0.0230    -2.3600 ca         1 J5L      -0.100300
     35 CBL          4.9680     1.1040     0.1980 ca         1 J5L      -0.306500
     36 CBM          9.3410     0.8060    -0.8710 cc         1 J5L       0.686100
     37 CBN          7.1750     1.0300    -1.4210 ca         1 J5L       0.027800
     38 CBO          7.2920     0.9190    -0.0380 ca         1 J5L       0.026100
     39 CBP          4.5910    -2.1150     1.6680 c3         1 J5L      -0.085700
     40 CBQ          0.3990    -0.6180     0.6910 c3         1 J5L       0.126100
     41 CBR         -0.6790    -0.8770    -0.3700 c3         1 J5L       0.092700
     42 CBS         -6.5390    -0.3070     0.8660 c5         1 J5L       0.119100
     43 CBT         -5.2060    -2.3470    -0.0260 c5         1 J5L       0.141100
     44 CBV         -7.5720    -2.4350     0.3360 c5         1 J5L       0.327900
     45 CBW         -6.4580    -1.4750    -0.1160 c5         1 J5L      -0.134700
     46 SBX          3.5150     1.0870     1.2080 sy         1 J5L       1.343200
     47 HAA         -4.0050     5.4650     0.0920 h1         1 J5L       0.042367
     48 HAAA        -5.6510     5.8730    -0.4050 h1         1 J5L       0.042367
     49 HAAB        -5.0830     6.3080     1.2070 h1         1 J5L       0.042367
     50 HAB         12.4240     0.5030    -0.0180 h1         1 J5L       0.042700
     51 HABA        11.2410     1.3700     0.9530 h1         1 J5L       0.042700
     52 HABB        11.1320    -0.3800     0.7830 h1         1 J5L       0.042700
     53 HAC          5.7870    -3.7250     2.4920 hc         1 J5L       0.037033
     54 HACA         4.7540    -2.9330     3.6780 hc         1 J5L       0.037033
     55 HACB         4.0540    -4.0460     2.5010 hc         1 J5L       0.037033
     56 HAD          3.9600    -3.3280    -0.0200 hc         1 J5L       0.037033
     57 HADA         4.6030    -1.7480    -0.4820 hc         1 J5L       0.037033
     58 HADB         5.6940    -3.0210     0.0440 hc         1 J5L       0.037033
     59 HOAI         0.5440     1.3090     0.9940 ho         1 J5L       0.429000
     60 HAL         -5.0460    -0.6880    -4.5680 ha         1 J5L       0.127000
     61 HAM         -5.2260     0.8040    -2.5810 ha         1 J5L       0.139500
     62 HAN         -2.8600    -1.7040    -5.1320 ha         1 J5L       0.139500
     63 HAO         -3.2630     1.2650    -1.2120 ha         1 J5L       0.129500
     64 HAP         -0.8890    -1.2640    -3.7220 ha         1 J5L       0.129500
     65 HAR          5.8300     1.2870    -3.0880 ha         1 J5L       0.150000
     66 HAS          6.3350     0.8820     1.8800 ha         1 J5L       0.179000
     67 HAT         -7.0310     2.2510     1.5840 h1         1 J5L       0.038200
     68 HATA        -5.3600     1.7600     1.8430 h1         1 J5L       0.038200
     69 HAU         -8.6690     0.0670     0.7170 h1         1 J5L       0.056200
     70 HAUA        -8.1130    -0.0360     2.4000 h1         1 J5L       0.056200
     71 HAV         -5.4570    -3.0280     2.0230 h1         1 J5L       0.067700
     72 HAVA        -5.0650    -4.3400     0.8970 h1         1 J5L       0.067700
     73 HAW          0.1670     0.2190    -2.0350 hc         1 J5L       0.054200
     74 HAWA        -0.8260     1.2010    -0.9670 hc         1 J5L       0.054200
     75 HAX          2.4560    -2.2400     1.8690 h1         1 J5L       0.064700
     76 HAXA         3.1970    -1.1380     2.9980 h1         1 J5L       0.064700
     77 HAY          1.9760    -1.6170    -0.3730 h1         1 J5L       0.060700
     78 HAYA         1.8840     0.0820    -0.7350 h1         1 J5L       0.060700
     79 HNAZ         8.7300     1.0060    -2.8730 hn         1 J5L       0.332700
     80 HNBA        -5.7580     4.2830     1.9690 hn         1 J5L       0.313500
     81 HNBC        -2.2880    -0.2140     0.8010 hn         1 J5L       0.328500
     82 HBP          5.3720    -1.3710     1.8560 hc         1 J5L       0.049700
     83 HBQ          0.3310    -1.4460     1.4050 h1         1 J5L       0.082700
     84 HBR         -0.4480    -1.8310    -0.8490 h1         1 J5L       0.084700
     85 HBS         -5.8370    -0.4380     1.7010 h1         1 J5L       0.062700
     86 HBT         -5.0180    -2.8190    -0.9920 h1         1 J5L       0.091700
     87 HBV         -8.3130    -2.6620    -0.4380 h2         1 J5L       0.091700
     88 HBW         -6.6230    -1.1080    -1.1300 hc         1 J5L       0.099700
     89 NBU          2.8380    -0.3940     1.0660 n3         1 J5L      -0.793500
     90 HAQ          3.8540     1.3660    -1.6250 ha         1 J5L       0.148000
     91 NBB         10.5870     0.7050    -0.9580 n2         1 J5L      -0.676900
@<TRIPOS>BOND
     1     1    25 1   
     2     1    47 1   
     3     1    48 1   
     4     1    49 1   
     5     2    50 1   
     6     2    51 1   
     7     2    52 1   
     8     2    91 1   
     9     3    39 1   
    10     3    53 1   
    11     3    54 1   
    12     3    55 1   
    13     4    39 1   
    14     4    56 1   
    15     4    57 1   
    16     4    58 1   
    17     5    32 2   
    18     6    33 2   
    19     7    46 2   
    20     8    46 2   
    21     9    40 1   
    22     9    59 1   
    23    10    11 ar  
    24    10    12 ar  
    25    10    60 1   
    26    11    13 ar  
    27    11    61 1   
    28    12    14 ar  
    29    12    62 1   
    30    13    34 ar  
    31    13    63 1   
    32    14    34 ar  
    33    14    64 1   
    34    15    16 ar  
    35    15    35 ar  
    36    15    90 1   
    37    16    37 ar  
    38    16    65 1   
    39    17    35 ar  
    40    17    38 ar  
    41    17    66 1   
    42    18    27 1   
    43    18    32 1   
    44    18    67 1   
    45    18    68 1   
    46    19    28 1   
    47    19    42 1   
    48    19    69 1   
    49    19    70 1   
    50    20    29 1   
    51    20    43 1   
    52    20    71 1   
    53    20    72 1   
    54    21    34 1   
    55    21    41 1   
    56    21    73 1   
    57    21    74 1   
    58    22    39 1   
    59    22    75 1   
    60    22    76 1   
    61    22    89 1   
    62    23    40 1   
    63    23    77 1   
    64    23    78 1   
    65    23    89 1   
    66    24    36 1   
    67    24    37 1   
    68    24    79 1   
    69    25    32 1   
    70    25    80 1   
    71    26    33 1   
    72    26    41 1   
    73    26    81 1   
    74    27    42 1   
    75    28    44 1   
    76    29    44 1   
    77    30    33 1   
    78    30    43 1   
    79    31    36 1   
    80    31    38 1   
    81    35    46 1   
    82    36    91 2   
    83    37    38 ar  
    84    39    82 1   
    85    40    41 1   
    86    40    83 1   
    87    41    84 1   
    88    42    45 1   
    89    42    85 1   
    90    43    45 1   
    91    43    86 1   
    92    44    45 1   
    93    44    87 1   
    94    45    88 1   
    95    46    89 1   
@<TRIPOS>SUBSTRUCTURE
     1 J5L         1 TEMP              0 ****  ****    0 ROOT
