@<TRIPOS>MOLECULE
J5M
   27    27     1     0     0
SMALL
No Charge or Current Charge


@<TRIPOS>ATOM
      1 C            6.0620    -0.5330     1.6450 c3         1 J5M      -0.177100
      2 O            6.3640    -0.4080    -0.7460 o          1 J5M      -0.606100
      3 C1           5.6060    -0.3200     0.2080 c          1 J5M       0.600100
      4 C2           3.6240     0.2210    -1.2220 c3         1 J5M       0.192100
      5 C3           2.2020     0.5050    -1.0090 c1         1 J5M      -0.134100
      6 C4           1.0270     0.7290    -0.7940 cg         1 J5M      -0.109000
      7 C5          -0.3590     0.9880    -0.5320 ca         1 J5M       0.022000
      8 C6          -0.8930     2.2660    -0.7700 ca         1 J5M      -0.060000
      9 F1          -4.7470    -0.7390     0.4670 f          1 J5M      -0.112333
     10 F2          -3.3690    -0.9740     2.1310 f          1 J5M      -0.112333
     11 F           -3.0900    -2.1280     0.3110 f          1 J5M      -0.112333
     12 C9          -2.5530     0.2070     0.2290 ca         1 J5M      -0.199300
     13 C10         -1.1850    -0.0350    -0.0320 ca         1 J5M      -0.040000
     14 C7          -2.2500     2.5190    -0.5060 ca         1 J5M      -0.119000
     15 C8          -3.0760     1.4980    -0.0070 ca         1 J5M      -0.051000
     16 N            4.2750    -0.0210     0.0620 ns         1 J5M      -0.513900
     17 H1           7.1300    -0.7700     1.7180 hc         1 J5M       0.061367
     18 H2           5.8030     0.3530     2.2360 hc         1 J5M       0.061367
     19 H3           5.4420    -1.3100     2.1050 hc         1 J5M       0.061367
     20 H4           3.7320    -0.6650    -1.8620 h1         1 J5M       0.072700
     21 H5           4.1000     1.0770    -1.7200 h1         1 J5M       0.072700
     22 H6          -0.2600     3.0620    -1.1560 ha         1 J5M       0.126000
     23 H7          -0.7590    -1.0190     0.1560 ha         1 J5M       0.136000
     24 H8          -2.6610     3.5100    -0.6860 ha         1 J5M       0.125000
     25 H9          -4.1220     1.7170     0.1980 ha         1 J5M       0.134000
     26 H10          3.7160     0.0340     0.9040 hn         1 J5M       0.322500
     27 C11         -3.4430    -0.9110     0.7830 c3         1 J5M       0.358300
@<TRIPOS>BOND
     1     1     3 1   
     2     1    17 1   
     3     1    18 1   
     4     1    19 1   
     5     2     3 2   
     6     3    16 1   
     7     4     5 1   
     8     4    16 1   
     9     4    20 1   
    10     4    21 1   
    11     5     6 3   
    12     6     7 1   
    13     7     8 ar  
    14     7    13 ar  
    15     8    14 ar  
    16     8    22 1   
    17     9    27 1   
    18    10    27 1   
    19    11    27 1   
    20    12    13 ar  
    21    12    15 ar  
    22    12    27 1   
    23    13    23 1   
    24    14    15 ar  
    25    14    24 1   
    26    15    25 1   
    27    16    26 1   
@<TRIPOS>SUBSTRUCTURE
     1 J5M         1 TEMP              0 ****  ****    0 ROOT
