@<TRIPOS>MOLECULE
J5M
   27    27     1     0     0
SMALL
bcc


@<TRIPOS>ATOM
      1 C            6.3590     0.1170     1.4420 c3         1 J5M      -0.177100
      2 O            6.1860    -0.8260    -0.7550 o          1 J5M      -0.606100
      3 C1           5.6240    -0.2910     0.1920 c          1 J5M       0.667100
      4 C2           3.4750    -0.3890    -0.9500 c3         1 J5M       0.192100
      5 C3           2.0990     0.0300    -0.7300 c1         1 J5M      -0.134100
      6 C4           0.9610     0.3790    -0.5490 cg         1 J5M      -0.109000
      7 C5          -0.3860     0.7960    -0.3360 ca         1 J5M       0.022000
      8 C6          -0.7090     2.1560    -0.3050 ca         1 J5M      -0.078000
      9 F1          -4.9870    -0.2860     0.2850 f          1 J5M      -0.233633
     10 F2          -3.5670    -1.4480     1.4090 f          1 J5M      -0.233633
     11 F           -3.7260    -1.7120    -0.7170 f          1 J5M      -0.233633
     12 C9          -2.7040     0.2600     0.0490 ca         1 J5M      -0.199300
     13 C10         -1.3930    -0.1500    -0.1570 ca         1 J5M      -0.058000
     14 C7          -2.0170     2.5540    -0.0960 ca         1 J5M      -0.137000
     15 C8          -3.0200     1.6110     0.0830 ca         1 J5M      -0.069000
     16 N            4.3050    -0.0330     0.1830 ns         1 J5M      -0.580900
     17 H1           7.2030     0.7530     1.1750 hc         1 J5M       0.061367
     18 H2           5.7380     0.6480     2.1600 hc         1 J5M       0.061367
     19 H3           6.7630    -0.7710     1.9270 hc         1 J5M       0.061367
     20 H4           3.5010    -1.4690    -1.1240 h1         1 J5M       0.072700
     21 H5           3.8540     0.0820    -1.8610 h1         1 J5M       0.072700
     22 H6           0.0700     2.8940    -0.4450 ha         1 J5M       0.144000
     23 H7          -1.1350    -1.2020    -0.1850 ha         1 J5M       0.154000
     24 H8          -2.2610     3.6070    -0.0710 ha         1 J5M       0.143000
     25 H9          -4.0360     1.9440     0.2460 ha         1 J5M       0.152000
     26 H10          3.8700     0.3900     0.9850 hn         1 J5M       0.322500
     27 C11         -3.7510    -0.7900     0.2550 c3         1 J5M       0.722200
@<TRIPOS>BOND
     1     1     3 1   
     2     1    17 1   
     3     1    18 1   
     4     1    19 1   
     5     2     3 2   
     6     3    16 1   
     7     4     5 1   
     8     4    16 1   
     9     4    20 1   
    10     4    21 1   
    11     5     6 3   
    12     6     7 1   
    13     7     8 ar  
    14     7    13 ar  
    15     8    14 ar  
    16     8    22 1   
    17     9    27 1   
    18    10    27 1   
    19    11    27 1   
    20    12    13 ar  
    21    12    15 ar  
    22    12    27 1   
    23    13    23 1   
    24    14    15 ar  
    25    14    24 1   
    26    15    25 1   
    27    16    26 1   
@<TRIPOS>SUBSTRUCTURE
     1 J5M         1 TEMP              0 ****  ****    0 ROOT
