@<TRIPOS>MOLECULE
J5N
   76    80     1     0     0
SMALL
No Charge or Current Charge


@<TRIPOS>ATOM
      1 C12          4.4570     0.3000     0.5180 c          1 J5N       0.598100
      2 C10          8.6990    -1.9590     1.8350 c1         1 J5N      -0.139100
      3 C11          9.5210    -2.8460     1.8710 c1         1 J5N      -0.215000
      4 C7           8.0380     0.9210    -1.0250 c5         1 J5N       0.105600
      5 C6           7.1240     1.9700    -0.3180 c5         1 J5N       0.126300
      6 N1           5.8470     0.0910     0.6570 n          1 J5N      -0.408800
      7 C5           6.7820     1.2030     0.9990 c5         1 J5N       0.075700
      8 C4           8.1300     0.4810     1.2980 c5         1 J5N       0.150300
      9 C29         -4.7650     2.2750     0.0920 cc         1 J5N       0.006000
     10 S30         -6.4860     2.4560     0.1140 ss         1 J5N      -0.114400
     11 C31         -6.5810     0.7130     0.1570 cc         1 J5N       0.730300
     12 N34         -7.7870     0.0390     0.1890 nh         1 J5N      -0.756300
     13 C39         -9.0890     0.7490     0.4120 c6         1 J5N       0.213800
     14 C38        -10.3010     0.0070    -0.2340 c6         1 J5N       0.153300
     15 N37        -10.3810    -1.4300     0.1620 n3         1 J5N      -0.712600
     16 C40        -11.5620    -2.1140    -0.4070 c3         1 J5N       0.151100
     17 C36         -9.0990    -2.1170    -0.1770 c6         1 J5N       0.153300
     18 C35         -7.8560    -1.4330     0.4730 c6         1 J5N       0.213800
     19 N32         -5.4360     0.0580     0.1540 nd         1 J5N      -0.727000
     20 C28         -4.3650     0.9460     0.1170 cd         1 J5N       0.356500
     21 C25         -2.9720     0.4010     0.1080 ca         1 J5N      -0.098500
     22 C24         -1.8220     1.2270     0.0680 ca         1 J5N      -0.094500
     23 C23         -0.5270     0.6800     0.0610 ca         1 J5N      -0.078500
     24 C26         -2.7620    -0.9990     0.1400 ca         1 J5N      -0.094500
     25 C27         -1.4690    -1.5470     0.1330 ca         1 J5N      -0.078500
     26 C22         -0.3290    -0.7190     0.0940 ca         1 J5N      -0.141600
     27 O21          1.2170    -2.5590     0.0900 o          1 J5N      -0.613100
     28 N19          2.1230    -0.4810     0.0760 ns         1 J5N      -0.496900
     29 C13          3.5500    -0.8760     0.0210 c3         1 J5N       0.041700
     30 C15          3.9420    -1.4500    -1.3790 c3         1 J5N      -0.083400
     31 C16          3.5050    -0.6390    -2.6360 c3         1 J5N      -0.056700
     32 C18          4.1430     0.7670    -2.7150 c3         1 J5N      -0.093100
     33 C17          3.8040    -1.4370    -3.9250 c3         1 J5N      -0.093100
     34 O14          3.9840     1.4100     0.7440 o          1 J5N      -0.600100
     35 O9           7.8040     3.2080    -0.0490 oh         1 J5N      -0.696000
     36 O8           8.8440     0.3540     0.0330 os         1 J5N      -0.429000
     37 C3           7.6530    -0.9110     1.8170 c5         1 J5N       0.009400
     38 C2           6.4560    -1.2450     0.8840 c5         1 J5N       0.108000
     39 H1          10.2570    -3.6250     1.8950 ha         1 J5N       0.257000
     40 H2           7.4470     0.1220    -1.4920 h1         1 J5N       0.057700
     41 H3           8.6850     1.3620    -1.7950 h1         1 J5N       0.057700
     42 H4           6.2180     2.1670    -0.9090 h1         1 J5N       0.054700
     43 H5           6.4210     1.8410     1.8170 h1         1 J5N       0.105700
     44 H6           8.7580     1.0230     2.0190 h1         1 J5N       0.070700
     45 H7          -9.2720     0.8460     1.4920 h1         1 J5N       0.058700
     46 H8          -9.0700     1.7670    -0.0020 h1         1 J5N       0.058700
     47 H9         -11.2240     0.5330     0.0530 h1         1 J5N       0.044450
     48 H10        -10.2140     0.0900    -1.3280 h1         1 J5N       0.044450
     49 H12        -11.6130    -3.1550    -0.0580 h1         1 J5N       0.034033
     50 H13        -12.4880    -1.6090    -0.1000 h1         1 J5N       0.034033
     51 H14        -11.5210    -2.1210    -1.5050 h1         1 J5N       0.034033
     52 H15         -9.1300    -3.1660     0.1520 h1         1 J5N       0.044450
     53 H16         -8.9560    -2.1290    -1.2680 h1         1 J5N       0.044450
     54 H17         -6.9610    -1.9550     0.1050 h1         1 J5N       0.058700
     55 H18         -7.8940    -1.5940     1.5600 h1         1 J5N       0.058700
     56 H19         -1.9010     2.3070     0.0410 ha         1 J5N       0.131000
     57 H20          0.3140     1.3680     0.0270 ha         1 J5N       0.126000
     58 H21         -3.6050    -1.6850     0.1700 ha         1 J5N       0.131000
     59 H22         -1.3590    -2.6290     0.1570 ha         1 J5N       0.126000
     60 H23          1.9130     0.5090     0.1150 hn         1 J5N       0.344500
     61 H24          3.6890    -1.6790     0.7550 h1         1 J5N       0.080700
     62 H25          5.0230    -1.6160    -1.4270 hc         1 J5N       0.054700
     63 H26          3.4940    -2.4480    -1.4550 hc         1 J5N       0.054700
     64 H27          2.4160    -0.5050    -2.5970 hc         1 J5N       0.054700
     65 H28          5.2350     0.7050    -2.6520 hc         1 J5N       0.034533
     66 H29          3.8840     1.2550    -3.6630 hc         1 J5N       0.034533
     67 H30          3.7780     1.4140    -1.9110 hc         1 J5N       0.034533
     68 H31          3.3050    -2.4130    -3.9040 hc         1 J5N       0.034533
     69 H32          3.4450    -0.8970    -4.8100 hc         1 J5N       0.034533
     70 H33          4.8820    -1.6050    -4.0400 hc         1 J5N       0.034533
     71 H34          8.0170     3.6210    -0.9180 ho         1 J5N       0.508000
     72 H35          7.2900    -0.8030     2.8460 hc         1 J5N       0.079700
     73 H36          5.7700    -1.9560     1.3620 h1         1 J5N       0.064700
     74 H37          6.8030    -1.6810    -0.0620 h1         1 J5N       0.064700
     75 C20          1.0520    -1.3470     0.0850 c          1 J5N       0.616700
     76 F33         -3.9650     3.3510     0.0560 f          1 J5N      -0.135000
@<TRIPOS>BOND
     1     1     6 1   
     2     1    29 1   
     3     1    34 2   
     4     2     3 3   
     5     2    37 1   
     6     3    39 1   
     7     4     5 1   
     8     4    36 1   
     9     4    40 1   
    10     4    41 1   
    11     5     7 1   
    12     5    35 1   
    13     5    42 1   
    14     6     7 1   
    15     6    38 1   
    16     7     8 1   
    17     7    43 1   
    18     8    36 1   
    19     8    37 1   
    20     8    44 1   
    21     9    10 1   
    22     9    20 2   
    23     9    76 1   
    24    10    11 1   
    25    11    12 1   
    26    11    19 2   
    27    12    13 1   
    28    12    18 1   
    29    13    14 1   
    30    13    45 1   
    31    13    46 1   
    32    14    15 1   
    33    14    47 1   
    34    14    48 1   
    35    15    16 1   
    36    15    17 1   
    37    16    49 1   
    38    16    50 1   
    39    16    51 1   
    40    17    18 1   
    41    17    52 1   
    42    17    53 1   
    43    18    54 1   
    44    18    55 1   
    45    19    20 1   
    46    20    21 1   
    47    21    22 ar  
    48    21    24 ar  
    49    22    23 ar  
    50    22    56 1   
    51    23    26 ar  
    52    23    57 1   
    53    24    25 ar  
    54    24    58 1   
    55    25    26 ar  
    56    25    59 1   
    57    26    75 1   
    58    27    75 2   
    59    28    29 1   
    60    28    60 1   
    61    28    75 1   
    62    29    30 1   
    63    29    61 1   
    64    30    31 1   
    65    30    62 1   
    66    30    63 1   
    67    31    32 1   
    68    31    33 1   
    69    31    64 1   
    70    32    65 1   
    71    32    66 1   
    72    32    67 1   
    73    33    68 1   
    74    33    69 1   
    75    33    70 1   
    76    35    71 1   
    77    37    38 1   
    78    37    72 1   
    79    38    73 1   
    80    38    74 1   
@<TRIPOS>SUBSTRUCTURE
     1 J5N         1 TEMP              0 ****  ****    0 ROOT
